version 3
run MultiCell-0-20250703-12:36:02-65697
attr configname MultiCell
attr datetime 20250703-12:36:02
attr datetimef 20250703-123602
attr experiment MultiCell
attr inifile omnetpp.ini
attr iterationvars "$u=0, $numRbs=50, $numUEs=1"
attr iterationvarsd u=0/numRbs=50/numUEs=1
attr iterationvarsf u=0,numRbs=50,numUEs=1-
attr measurement "$u=0, $numRbs=50, $numUEs=1"
attr network simu5g.simulations.NR.networks.MultiCell_Standalone
attr processid 65697
attr repetition 0
attr replication #0
attr resultdir results
attr runnumber 0
attr seedset 0
itervar numRbs 50
itervar numUEs 1
itervar u 0
config image-path ../../../images:../../../../inet4.5/images
config network simu5g.simulations.NR.networks.MultiCell_Standalone
config sim-time-limit 20s
config description "Base configuration, do not run this config!"
config **.mobility.constraintAreaMaxX 1000m
config **.mobility.constraintAreaMaxY 750m
config **.mobility.constraintAreaMinX 0m
config **.mobility.constraintAreaMinY 250m
config **.mobility.constraintAreaMinZ 0m
config **.mobility.constraintAreaMaxZ 0m
config **.mobility.initFromDisplayString false
config *.carrierAggregation.numComponentCarriers 1
config *.carrierAggregation.componentCarrier[0].numerologyIndex 0
config *.carrierAggregation.componentCarrier[0].carrierFrequency 2GHz
config *.carrierAggregation.componentCarrier[0].numBands 50
config *.gnb*.cellularNic.numCarriers 1
config *.gnb*.cellularNic.channelModel[0].componentCarrierModule "\"carrierAggregation.componentCarrier[0]\""
config *.ue[*].cellularNic.numCarriers 1
config *.ue[*].cellularNic.nrChannelModel[0].componentCarrierModule "\"carrierAggregation.componentCarrier[0]\""
config *.gnb1.mobility.initialX 250m
config *.gnb1.mobility.initialY 500m
config *.gnb2.mobility.initialX 750m
config *.gnb2.mobility.initialY 500m
config *.gnb*.numX2Apps 1
config *.gnb*.x2App[*].server.localPort "5000 + ancestorIndex(1)"
config *.gnb1.x2App[0].client.connectAddress "\"gnb2%x2ppp0\""
config *.gnb2.x2App[0].client.connectAddress "\"gnb1%x2ppp0\""
config *.numUe 1
config *.ue[*].macCellId 0
config *.ue[*].masterId 0
config *.ue[*].nrMacCellId 1
config *.ue[*].nrMasterId 1
config **.dynamicCellAssociation true
config **.enableHandover true
config *.ue[*].mobility.typename LinearMobility
config *.ue[*].mobility.initialX uniform(0m,1000m)
config *.ue[*].mobility.initialY uniform(250m,750m)
config *.ue[*].mobility.speed uniform(3mps,13.89mps)
config **.routingRecorder.enabled false
config output-scalar-file "results/MultiCell/$u=0, $numRbs=50, $numUEs=1-0.sca"
config output-vector-file "results/MultiCell/$u=0, $numRbs=50, $numUEs=1-0.vec"
config seed-set 0
config **.sctp.**.scalar-recording false
config **.sctp.**.vector-recording false
config **.vector-recording true
config **.sctp.nagleEnabled false
config **.sctp.enableHeartbeats false
config **.downlink_interference true
config **.uplink_interference true
config **.ueTxPower 26dBm
config **.eNodeBTxPower 46dBm
config **.targetBler 0.01
config **.blerShift 5
config **.fbPeriod 40tti
config *.configurator.config "xmldoc(\"./demo.xml\")"

vector 0 MultiCell_Standalone.server.lo[0].lo rcvdPkFromHl:vector(packetBytes) ETV
attr interpolationmode none
attr recordingmode vector(packetBytes)
attr source packetReceivedFromUpper
attr title "packets received from higher layer, packetBytes"
vector 1 MultiCell_Standalone.server.lo[0].lo passedUpPk:vector(packetBytes) ETV
attr interpolationmode none
attr recordingmode vector(packetBytes)
attr source packetSentToUpper
attr title "packets passed to higher layer, packetBytes"
vector 2 MultiCell_Standalone.server.lo[0] packetDropInterfaceDown:vector(packetBytes) ETV
attr interpolationmode none
attr recordingmode vector(packetBytes)
attr source packetDropReasonIsInterfaceDown(packetDropped)
attr title "packet drops: interface down, packetBytes"
vector 3 MultiCell_Standalone.server.lo[0] packetDropNoCarrier:vector(packetBytes) ETV
attr interpolationmode none
attr recordingmode vector(packetBytes)
attr source packetDropReasonIsNoCarrier(packetDropped)
attr title "packet drops: no carrier, packetBytes"
vector 4 MultiCell_Standalone.server.ppp[0].queue queueLength:vector ETV
attr autoWarmupFilter false
attr interpolationmode sample-hold
attr recordingmode vector
attr source "warmup(atomic(constant0(packetPushEnded) + count(packetPushStarted) - count(packetPulled) - count(packetRemoved) - count(packetDropped)))"
attr title "queue length"
attr unit pk
vector 5 MultiCell_Standalone.server.ppp[0].queue queueBitLength:vector ETV
attr autoWarmupFilter false
attr interpolationmode sample-hold
attr recordingmode vector
attr source "warmup(atomic(constant0(packetPushEnded) + sum(packetLength(packetPushStarted)) - sum(packetLength(packetPulled)) - sum(packetLength(packetRemoved)) - sum(packetLength(packetDropped))))"
attr title "queue bit length"
attr unit b
vector 6 MultiCell_Standalone.server.ppp[0].queue queueingTime:vector ETV
attr interpolationmode none
attr recordingmode vector
attr source queueingTime(packetPulled)
attr title "queueing times"
attr unit s
vector 7 MultiCell_Standalone.server.ppp[0].queue incomingPacketLengths:vector ETV
attr interpolationmode none
attr recordingmode vector
attr source packetLength(packetPushStarted)
attr title "incoming packet lengths"
attr unit b
vector 8 MultiCell_Standalone.server.ppp[0].queue incomingDataRate:vector ETV
attr interpolationmode linear
attr recordingmode vector
attr source throughput(packetPushStarted)
attr title "incoming datarate"
attr unit bps
vector 9 MultiCell_Standalone.server.ppp[0].queue outgoingPacketLengths:vector ETV
attr interpolationmode none
attr recordingmode vector
attr source packetLength(packetPulled)
attr title "outgoing packet lengths"
attr unit b
vector 10 MultiCell_Standalone.server.ppp[0].queue outgoingDataRate:vector ETV
attr interpolationmode linear
attr recordingmode vector
attr source throughput(packetPulled)
attr title "outgoing datarate"
attr unit bps
vector 11 MultiCell_Standalone.server.ppp[0].queue droppedPacketLengthsQueueOverflow:vector ETV
attr interpolationmode none
attr recordingmode vector
attr source packetLength(packetDropReasonIsQueueOverflow(packetDropped))
attr title "dropped packet lengths: queue overflow"
attr unit b
vector 12 MultiCell_Standalone.server.ppp[0].queue flowQueueingTime:vector ETV
attr interpolationmode none
attr recordingmode vector
attr source queueingTime(demuxFlow(packetPulled))
attr title "flow queueing times"
attr unit s
vector 13 MultiCell_Standalone.server.ppp[0].queue flowIncomingDataRate:vector ETV
attr interpolationmode linear
attr recordingmode vector
attr source throughput(flowPacketLength(demuxFlow(packetPushStarted)))
attr title "flow specific incoming data rate"
attr unit bps
vector 14 MultiCell_Standalone.server.ppp[0].queue flowOutgoingDataRate:vector ETV
attr interpolationmode linear
attr recordingmode vector
attr source throughput(flowPacketLength(demuxFlow(packetPulled)))
attr title "flow specific outgoing data rate"
attr unit bps
vector 15 MultiCell_Standalone.server.ppp[0].ppp transmissionState:vector ETV
attr interpolationmode sample-hold
attr recordingmode vector
attr source transmissionStateChanged
attr title "tx state"
vector 16 MultiCell_Standalone.server.ppp[0].ppp txPk:vector(packetBytes) ETV
attr interpolationmode none
attr recordingmode vector(packetBytes)
attr source packetSentToLower
attr title "packets transmitted, packetBytes"
vector 17 MultiCell_Standalone.server.ppp[0].ppp rxPkOk:vector(packetBytes) ETV
attr interpolationmode none
attr recordingmode vector(packetBytes)
attr source rxPkOk
attr title "packets received OK, packetBytes"
vector 18 MultiCell_Standalone.server.ppp[0].ppp packetDropIncorrectlyReceived:vector(packetBytes) ETV
attr interpolationmode none
attr recordingmode vector(packetBytes)
attr source packetDropReasonIsIncorrectlyReceived(packetDropped)
attr title "packet drop: incorrectly received, packetBytes"
vector 19 MultiCell_Standalone.server.ppp[0].ppp packetDropInterfaceDown:vector(packetBytes) ETV
attr interpolationmode none
attr recordingmode vector(packetBytes)
attr source packetDropReasonIsInterfaceDown(packetDropped)
attr title "packet drop: interface down, packetBytes"
vector 20 MultiCell_Standalone.server.ppp[0].ppp rcvdPkFromHl:vector(packetBytes) ETV
attr interpolationmode none
attr recordingmode vector(packetBytes)
attr source packetReceivedFromUpper
attr title "packets received from higher layer, packetBytes"
vector 21 MultiCell_Standalone.server.ppp[0].ppp passedUpPk:vector(packetBytes) ETV
attr interpolationmode none
attr recordingmode vector(packetBytes)
attr source packetSentToUpper
attr title "packets passed to higher layer, packetBytes"
vector 22 MultiCell_Standalone.server.ppp[0] packetDropInterfaceDown:vector(packetBytes) ETV
attr interpolationmode none
attr recordingmode vector(packetBytes)
attr source packetDropReasonIsInterfaceDown(packetDropped)
attr title "packet drops: interface down, packetBytes"
vector 23 MultiCell_Standalone.server.ppp[0] packetDropNoCarrier:vector(packetBytes) ETV
attr interpolationmode none
attr recordingmode vector(packetBytes)
attr source packetDropReasonIsNoCarrier(packetDropped)
attr title "packet drops: no carrier, packetBytes"
vector 24 MultiCell_Standalone.server.ipv4.ip packetDropAddressResolutionFailed:vector(packetBytes) ETV
attr interpolationmode none
attr recordingmode vector(packetBytes)
attr source packetDropReasonIsAddressResolutionFailed(packetDropped)
attr title "packet drop: address resolution failed, packetBytes"
vector 25 MultiCell_Standalone.server.ipv4.ip packetDropHopLimitReached:vector(packetBytes) ETV
attr interpolationmode none
attr recordingmode vector(packetBytes)
attr source packetDropReasonIsHopLimitReached(packetDropped)
attr title "packet drop: hop limit reached, packetBytes"
vector 26 MultiCell_Standalone.server.ipv4.ip packetDropForwardingDisabled:vector(packetBytes) ETV
attr interpolationmode none
attr recordingmode vector(packetBytes)
attr source packetDropReasonIsForwardingDisabled(packetDropped)
attr title "packet drop: forwarding disabled, packetBytes"
vector 27 MultiCell_Standalone.server.ipv4.ip packetDropNoInterfaceFound:vector(packetBytes) ETV
attr interpolationmode none
attr recordingmode vector(packetBytes)
attr source packetDropReasonIsNoInterfaceFound(packetDropped)
attr title "packet drop: no interface found, packetBytes"
vector 28 MultiCell_Standalone.server.ipv4.ip packetDropNoRouteFound:vector(packetBytes) ETV
attr interpolationmode none
attr recordingmode vector(packetBytes)
attr source packetDropReasonIsNoRouteFound(packetDropped)
attr title "packet drop: no route found, packetBytes"
vector 29 MultiCell_Standalone.server.ipv4.ip packetDropUndefined:vector(packetBytes) ETV
attr interpolationmode none
attr recordingmode vector(packetBytes)
attr source packetDropReasonIsUndefined(packetDropped)
attr title "packet drop: undefined, packetBytes"
vector 30 MultiCell_Standalone.server.ipv4.arp arpRequestSent:vector(packetBytes) ETV
attr recordingmode vector(packetBytes)
attr source arpRequestSent
attr title "ARP request sent, packetBytes"
vector 31 MultiCell_Standalone.server.ipv4.arp arpReplySent:vector(packetBytes) ETV
attr recordingmode vector(packetBytes)
attr source arpReplySent
attr title "ARP replies sent, packetBytes"
vector 32 MultiCell_Standalone.server.udp packetSent:vector(packetBytes) ETV
attr interpolationmode none
attr recordingmode vector(packetBytes)
attr source packetSent
attr title "packets sent, packetBytes"
vector 33 MultiCell_Standalone.server.udp packetReceived:vector(packetBytes) ETV
attr interpolationmode none
attr recordingmode vector(packetBytes)
attr source packetReceived
attr title "packets received, packetBytes"
vector 34 MultiCell_Standalone.server.udp passedUpPk:vector(count) ETV
attr interpolationmode none
attr recordingmode vector(count)
attr source packetSentToUpper
attr title "packets passed up, count"
vector 35 MultiCell_Standalone.server.udp droppedPkWrongPort:vector(count) ETV
attr interpolationmode none
attr recordingmode vector(count)
attr source packetDropReasonIsNoPortFound(packetDropped)
attr title "packets dropped (wrong port), count"
vector 36 MultiCell_Standalone.server.udp droppedPkBadChecksum:vector(count) ETV
attr interpolationmode none
attr recordingmode vector(count)
attr source packetDropReasonIsIncorrectlyReceived(packetDropped)
attr title "packets dropped (checksum error), count"
vector 37 MultiCell_Standalone.router.lo[0].lo rcvdPkFromHl:vector(packetBytes) ETV
attr interpolationmode none
attr recordingmode vector(packetBytes)
attr source packetReceivedFromUpper
attr title "packets received from higher layer, packetBytes"
vector 38 MultiCell_Standalone.router.lo[0].lo passedUpPk:vector(packetBytes) ETV
attr interpolationmode none
attr recordingmode vector(packetBytes)
attr source packetSentToUpper
attr title "packets passed to higher layer, packetBytes"
vector 39 MultiCell_Standalone.router.lo[0] packetDropInterfaceDown:vector(packetBytes) ETV
attr interpolationmode none
attr recordingmode vector(packetBytes)
attr source packetDropReasonIsInterfaceDown(packetDropped)
attr title "packet drops: interface down, packetBytes"
vector 40 MultiCell_Standalone.router.lo[0] packetDropNoCarrier:vector(packetBytes) ETV
attr interpolationmode none
attr recordingmode vector(packetBytes)
attr source packetDropReasonIsNoCarrier(packetDropped)
attr title "packet drops: no carrier, packetBytes"
vector 41 MultiCell_Standalone.router.ppp[0].queue queueLength:vector ETV
attr autoWarmupFilter false
attr interpolationmode sample-hold
attr recordingmode vector
attr source "warmup(atomic(constant0(packetPushEnded) + count(packetPushStarted) - count(packetPulled) - count(packetRemoved) - count(packetDropped)))"
attr title "queue length"
attr unit pk
vector 42 MultiCell_Standalone.router.ppp[0].queue queueBitLength:vector ETV
attr autoWarmupFilter false
attr interpolationmode sample-hold
attr recordingmode vector
attr source "warmup(atomic(constant0(packetPushEnded) + sum(packetLength(packetPushStarted)) - sum(packetLength(packetPulled)) - sum(packetLength(packetRemoved)) - sum(packetLength(packetDropped))))"
attr title "queue bit length"
attr unit b
vector 43 MultiCell_Standalone.router.ppp[0].queue queueingTime:vector ETV
attr interpolationmode none
attr recordingmode vector
attr source queueingTime(packetPulled)
attr title "queueing times"
attr unit s
vector 44 MultiCell_Standalone.router.ppp[0].queue incomingPacketLengths:vector ETV
attr interpolationmode none
attr recordingmode vector
attr source packetLength(packetPushStarted)
attr title "incoming packet lengths"
attr unit b
vector 45 MultiCell_Standalone.router.ppp[0].queue incomingDataRate:vector ETV
attr interpolationmode linear
attr recordingmode vector
attr source throughput(packetPushStarted)
attr title "incoming datarate"
attr unit bps
vector 46 MultiCell_Standalone.router.ppp[0].queue outgoingPacketLengths:vector ETV
attr interpolationmode none
attr recordingmode vector
attr source packetLength(packetPulled)
attr title "outgoing packet lengths"
attr unit b
vector 47 MultiCell_Standalone.router.ppp[0].queue outgoingDataRate:vector ETV
attr interpolationmode linear
attr recordingmode vector
attr source throughput(packetPulled)
attr title "outgoing datarate"
attr unit bps
vector 48 MultiCell_Standalone.router.ppp[0].queue droppedPacketLengthsQueueOverflow:vector ETV
attr interpolationmode none
attr recordingmode vector
attr source packetLength(packetDropReasonIsQueueOverflow(packetDropped))
attr title "dropped packet lengths: queue overflow"
attr unit b
vector 49 MultiCell_Standalone.router.ppp[0].queue flowQueueingTime:vector ETV
attr interpolationmode none
attr recordingmode vector
attr source queueingTime(demuxFlow(packetPulled))
attr title "flow queueing times"
attr unit s
vector 50 MultiCell_Standalone.router.ppp[0].queue flowIncomingDataRate:vector ETV
attr interpolationmode linear
attr recordingmode vector
attr source throughput(flowPacketLength(demuxFlow(packetPushStarted)))
attr title "flow specific incoming data rate"
attr unit bps
vector 51 MultiCell_Standalone.router.ppp[0].queue flowOutgoingDataRate:vector ETV
attr interpolationmode linear
attr recordingmode vector
attr source throughput(flowPacketLength(demuxFlow(packetPulled)))
attr title "flow specific outgoing data rate"
attr unit bps
vector 52 MultiCell_Standalone.router.ppp[0].ppp transmissionState:vector ETV
attr interpolationmode sample-hold
attr recordingmode vector
attr source transmissionStateChanged
attr title "tx state"
vector 53 MultiCell_Standalone.router.ppp[0].ppp txPk:vector(packetBytes) ETV
attr interpolationmode none
attr recordingmode vector(packetBytes)
attr source packetSentToLower
attr title "packets transmitted, packetBytes"
vector 54 MultiCell_Standalone.router.ppp[0].ppp rxPkOk:vector(packetBytes) ETV
attr interpolationmode none
attr recordingmode vector(packetBytes)
attr source rxPkOk
attr title "packets received OK, packetBytes"
vector 55 MultiCell_Standalone.router.ppp[0].ppp packetDropIncorrectlyReceived:vector(packetBytes) ETV
attr interpolationmode none
attr recordingmode vector(packetBytes)
attr source packetDropReasonIsIncorrectlyReceived(packetDropped)
attr title "packet drop: incorrectly received, packetBytes"
vector 56 MultiCell_Standalone.router.ppp[0].ppp packetDropInterfaceDown:vector(packetBytes) ETV
attr interpolationmode none
attr recordingmode vector(packetBytes)
attr source packetDropReasonIsInterfaceDown(packetDropped)
attr title "packet drop: interface down, packetBytes"
vector 57 MultiCell_Standalone.router.ppp[0].ppp rcvdPkFromHl:vector(packetBytes) ETV
attr interpolationmode none
attr recordingmode vector(packetBytes)
attr source packetReceivedFromUpper
attr title "packets received from higher layer, packetBytes"
vector 58 MultiCell_Standalone.router.ppp[0].ppp passedUpPk:vector(packetBytes) ETV
attr interpolationmode none
attr recordingmode vector(packetBytes)
attr source packetSentToUpper
attr title "packets passed to higher layer, packetBytes"
vector 59 MultiCell_Standalone.router.ppp[0] packetDropInterfaceDown:vector(packetBytes) ETV
attr interpolationmode none
attr recordingmode vector(packetBytes)
attr source packetDropReasonIsInterfaceDown(packetDropped)
attr title "packet drops: interface down, packetBytes"
vector 60 MultiCell_Standalone.router.ppp[0] packetDropNoCarrier:vector(packetBytes) ETV
attr interpolationmode none
attr recordingmode vector(packetBytes)
attr source packetDropReasonIsNoCarrier(packetDropped)
attr title "packet drops: no carrier, packetBytes"
vector 61 MultiCell_Standalone.router.ppp[1].queue queueLength:vector ETV
attr autoWarmupFilter false
attr interpolationmode sample-hold
attr recordingmode vector
attr source "warmup(atomic(constant0(packetPushEnded) + count(packetPushStarted) - count(packetPulled) - count(packetRemoved) - count(packetDropped)))"
attr title "queue length"
attr unit pk
vector 62 MultiCell_Standalone.router.ppp[1].queue queueBitLength:vector ETV
attr autoWarmupFilter false
attr interpolationmode sample-hold
attr recordingmode vector
attr source "warmup(atomic(constant0(packetPushEnded) + sum(packetLength(packetPushStarted)) - sum(packetLength(packetPulled)) - sum(packetLength(packetRemoved)) - sum(packetLength(packetDropped))))"
attr title "queue bit length"
attr unit b
vector 63 MultiCell_Standalone.router.ppp[1].queue queueingTime:vector ETV
attr interpolationmode none
attr recordingmode vector
attr source queueingTime(packetPulled)
attr title "queueing times"
attr unit s
vector 64 MultiCell_Standalone.router.ppp[1].queue incomingPacketLengths:vector ETV
attr interpolationmode none
attr recordingmode vector
attr source packetLength(packetPushStarted)
attr title "incoming packet lengths"
attr unit b
vector 65 MultiCell_Standalone.router.ppp[1].queue incomingDataRate:vector ETV
attr interpolationmode linear
attr recordingmode vector
attr source throughput(packetPushStarted)
attr title "incoming datarate"
attr unit bps
vector 66 MultiCell_Standalone.router.ppp[1].queue outgoingPacketLengths:vector ETV
attr interpolationmode none
attr recordingmode vector
attr source packetLength(packetPulled)
attr title "outgoing packet lengths"
attr unit b
vector 67 MultiCell_Standalone.router.ppp[1].queue outgoingDataRate:vector ETV
attr interpolationmode linear
attr recordingmode vector
attr source throughput(packetPulled)
attr title "outgoing datarate"
attr unit bps
vector 68 MultiCell_Standalone.router.ppp[1].queue droppedPacketLengthsQueueOverflow:vector ETV
attr interpolationmode none
attr recordingmode vector
attr source packetLength(packetDropReasonIsQueueOverflow(packetDropped))
attr title "dropped packet lengths: queue overflow"
attr unit b
vector 69 MultiCell_Standalone.router.ppp[1].queue flowQueueingTime:vector ETV
attr interpolationmode none
attr recordingmode vector
attr source queueingTime(demuxFlow(packetPulled))
attr title "flow queueing times"
attr unit s
vector 70 MultiCell_Standalone.router.ppp[1].queue flowIncomingDataRate:vector ETV
attr interpolationmode linear
attr recordingmode vector
attr source throughput(flowPacketLength(demuxFlow(packetPushStarted)))
attr title "flow specific incoming data rate"
attr unit bps
vector 71 MultiCell_Standalone.router.ppp[1].queue flowOutgoingDataRate:vector ETV
attr interpolationmode linear
attr recordingmode vector
attr source throughput(flowPacketLength(demuxFlow(packetPulled)))
attr title "flow specific outgoing data rate"
attr unit bps
vector 72 MultiCell_Standalone.router.ppp[1].ppp transmissionState:vector ETV
attr interpolationmode sample-hold
attr recordingmode vector
attr source transmissionStateChanged
attr title "tx state"
vector 73 MultiCell_Standalone.router.ppp[1].ppp txPk:vector(packetBytes) ETV
attr interpolationmode none
attr recordingmode vector(packetBytes)
attr source packetSentToLower
attr title "packets transmitted, packetBytes"
vector 74 MultiCell_Standalone.router.ppp[1].ppp rxPkOk:vector(packetBytes) ETV
attr interpolationmode none
attr recordingmode vector(packetBytes)
attr source rxPkOk
attr title "packets received OK, packetBytes"
vector 75 MultiCell_Standalone.router.ppp[1].ppp packetDropIncorrectlyReceived:vector(packetBytes) ETV
attr interpolationmode none
attr recordingmode vector(packetBytes)
attr source packetDropReasonIsIncorrectlyReceived(packetDropped)
attr title "packet drop: incorrectly received, packetBytes"
vector 76 MultiCell_Standalone.router.ppp[1].ppp packetDropInterfaceDown:vector(packetBytes) ETV
attr interpolationmode none
attr recordingmode vector(packetBytes)
attr source packetDropReasonIsInterfaceDown(packetDropped)
attr title "packet drop: interface down, packetBytes"
vector 77 MultiCell_Standalone.router.ppp[1].ppp rcvdPkFromHl:vector(packetBytes) ETV
attr interpolationmode none
attr recordingmode vector(packetBytes)
attr source packetReceivedFromUpper
attr title "packets received from higher layer, packetBytes"
vector 78 MultiCell_Standalone.router.ppp[1].ppp passedUpPk:vector(packetBytes) ETV
attr interpolationmode none
attr recordingmode vector(packetBytes)
attr source packetSentToUpper
attr title "packets passed to higher layer, packetBytes"
vector 79 MultiCell_Standalone.router.ppp[1] packetDropInterfaceDown:vector(packetBytes) ETV
attr interpolationmode none
attr recordingmode vector(packetBytes)
attr source packetDropReasonIsInterfaceDown(packetDropped)
attr title "packet drops: interface down, packetBytes"
vector 80 MultiCell_Standalone.router.ppp[1] packetDropNoCarrier:vector(packetBytes) ETV
attr interpolationmode none
attr recordingmode vector(packetBytes)
attr source packetDropReasonIsNoCarrier(packetDropped)
attr title "packet drops: no carrier, packetBytes"
vector 81 MultiCell_Standalone.router.ipv4.ip packetDropAddressResolutionFailed:vector(packetBytes) ETV
attr interpolationmode none
attr recordingmode vector(packetBytes)
attr source packetDropReasonIsAddressResolutionFailed(packetDropped)
attr title "packet drop: address resolution failed, packetBytes"
vector 82 MultiCell_Standalone.router.ipv4.ip packetDropHopLimitReached:vector(packetBytes) ETV
attr interpolationmode none
attr recordingmode vector(packetBytes)
attr source packetDropReasonIsHopLimitReached(packetDropped)
attr title "packet drop: hop limit reached, packetBytes"
vector 83 MultiCell_Standalone.router.ipv4.ip packetDropForwardingDisabled:vector(packetBytes) ETV
attr interpolationmode none
attr recordingmode vector(packetBytes)
attr source packetDropReasonIsForwardingDisabled(packetDropped)
attr title "packet drop: forwarding disabled, packetBytes"
vector 84 MultiCell_Standalone.router.ipv4.ip packetDropNoInterfaceFound:vector(packetBytes) ETV
attr interpolationmode none
attr recordingmode vector(packetBytes)
attr source packetDropReasonIsNoInterfaceFound(packetDropped)
attr title "packet drop: no interface found, packetBytes"
vector 85 MultiCell_Standalone.router.ipv4.ip packetDropNoRouteFound:vector(packetBytes) ETV
attr interpolationmode none
attr recordingmode vector(packetBytes)
attr source packetDropReasonIsNoRouteFound(packetDropped)
attr title "packet drop: no route found, packetBytes"
vector 86 MultiCell_Standalone.router.ipv4.ip packetDropUndefined:vector(packetBytes) ETV
attr interpolationmode none
attr recordingmode vector(packetBytes)
attr source packetDropReasonIsUndefined(packetDropped)
attr title "packet drop: undefined, packetBytes"
vector 87 MultiCell_Standalone.router.ipv4.arp arpRequestSent:vector(packetBytes) ETV
attr recordingmode vector(packetBytes)
attr source arpRequestSent
attr title "ARP request sent, packetBytes"
vector 88 MultiCell_Standalone.router.ipv4.arp arpReplySent:vector(packetBytes) ETV
attr recordingmode vector(packetBytes)
attr source arpReplySent
attr title "ARP replies sent, packetBytes"
vector 89 MultiCell_Standalone.upf.lo[0].lo rcvdPkFromHl:vector(packetBytes) ETV
attr interpolationmode none
attr recordingmode vector(packetBytes)
attr source packetReceivedFromUpper
attr title "packets received from higher layer, packetBytes"
vector 90 MultiCell_Standalone.upf.lo[0].lo passedUpPk:vector(packetBytes) ETV
attr interpolationmode none
attr recordingmode vector(packetBytes)
attr source packetSentToUpper
attr title "packets passed to higher layer, packetBytes"
vector 91 MultiCell_Standalone.upf.lo[0] packetDropInterfaceDown:vector(packetBytes) ETV
attr interpolationmode none
attr recordingmode vector(packetBytes)
attr source packetDropReasonIsInterfaceDown(packetDropped)
attr title "packet drops: interface down, packetBytes"
vector 92 MultiCell_Standalone.upf.lo[0] packetDropNoCarrier:vector(packetBytes) ETV
attr interpolationmode none
attr recordingmode vector(packetBytes)
attr source packetDropReasonIsNoCarrier(packetDropped)
attr title "packet drops: no carrier, packetBytes"
vector 93 MultiCell_Standalone.upf.ppp[0].queue queueLength:vector ETV
attr autoWarmupFilter false
attr interpolationmode sample-hold
attr recordingmode vector
attr source "warmup(atomic(constant0(packetPushEnded) + count(packetPushStarted) - count(packetPulled) - count(packetRemoved) - count(packetDropped)))"
attr title "queue length"
attr unit pk
vector 94 MultiCell_Standalone.upf.ppp[0].queue queueBitLength:vector ETV
attr autoWarmupFilter false
attr interpolationmode sample-hold
attr recordingmode vector
attr source "warmup(atomic(constant0(packetPushEnded) + sum(packetLength(packetPushStarted)) - sum(packetLength(packetPulled)) - sum(packetLength(packetRemoved)) - sum(packetLength(packetDropped))))"
attr title "queue bit length"
attr unit b
vector 95 MultiCell_Standalone.upf.ppp[0].queue queueingTime:vector ETV
attr interpolationmode none
attr recordingmode vector
attr source queueingTime(packetPulled)
attr title "queueing times"
attr unit s
vector 96 MultiCell_Standalone.upf.ppp[0].queue incomingPacketLengths:vector ETV
attr interpolationmode none
attr recordingmode vector
attr source packetLength(packetPushStarted)
attr title "incoming packet lengths"
attr unit b
vector 97 MultiCell_Standalone.upf.ppp[0].queue incomingDataRate:vector ETV
attr interpolationmode linear
attr recordingmode vector
attr source throughput(packetPushStarted)
attr title "incoming datarate"
attr unit bps
vector 98 MultiCell_Standalone.upf.ppp[0].queue outgoingPacketLengths:vector ETV
attr interpolationmode none
attr recordingmode vector
attr source packetLength(packetPulled)
attr title "outgoing packet lengths"
attr unit b
vector 99 MultiCell_Standalone.upf.ppp[0].queue outgoingDataRate:vector ETV
attr interpolationmode linear
attr recordingmode vector
attr source throughput(packetPulled)
attr title "outgoing datarate"
attr unit bps
vector 100 MultiCell_Standalone.upf.ppp[0].queue droppedPacketLengthsQueueOverflow:vector ETV
attr interpolationmode none
attr recordingmode vector
attr source packetLength(packetDropReasonIsQueueOverflow(packetDropped))
attr title "dropped packet lengths: queue overflow"
attr unit b
vector 101 MultiCell_Standalone.upf.ppp[0].queue flowQueueingTime:vector ETV
attr interpolationmode none
attr recordingmode vector
attr source queueingTime(demuxFlow(packetPulled))
attr title "flow queueing times"
attr unit s
vector 102 MultiCell_Standalone.upf.ppp[0].queue flowIncomingDataRate:vector ETV
attr interpolationmode linear
attr recordingmode vector
attr source throughput(flowPacketLength(demuxFlow(packetPushStarted)))
attr title "flow specific incoming data rate"
attr unit bps
vector 103 MultiCell_Standalone.upf.ppp[0].queue flowOutgoingDataRate:vector ETV
attr interpolationmode linear
attr recordingmode vector
attr source throughput(flowPacketLength(demuxFlow(packetPulled)))
attr title "flow specific outgoing data rate"
attr unit bps
vector 104 MultiCell_Standalone.upf.ppp[0].ppp transmissionState:vector ETV
attr interpolationmode sample-hold
attr recordingmode vector
attr source transmissionStateChanged
attr title "tx state"
vector 105 MultiCell_Standalone.upf.ppp[0].ppp txPk:vector(packetBytes) ETV
attr interpolationmode none
attr recordingmode vector(packetBytes)
attr source packetSentToLower
attr title "packets transmitted, packetBytes"
vector 106 MultiCell_Standalone.upf.ppp[0].ppp rxPkOk:vector(packetBytes) ETV
attr interpolationmode none
attr recordingmode vector(packetBytes)
attr source rxPkOk
attr title "packets received OK, packetBytes"
vector 107 MultiCell_Standalone.upf.ppp[0].ppp packetDropIncorrectlyReceived:vector(packetBytes) ETV
attr interpolationmode none
attr recordingmode vector(packetBytes)
attr source packetDropReasonIsIncorrectlyReceived(packetDropped)
attr title "packet drop: incorrectly received, packetBytes"
vector 108 MultiCell_Standalone.upf.ppp[0].ppp packetDropInterfaceDown:vector(packetBytes) ETV
attr interpolationmode none
attr recordingmode vector(packetBytes)
attr source packetDropReasonIsInterfaceDown(packetDropped)
attr title "packet drop: interface down, packetBytes"
vector 109 MultiCell_Standalone.upf.ppp[0].ppp rcvdPkFromHl:vector(packetBytes) ETV
attr interpolationmode none
attr recordingmode vector(packetBytes)
attr source packetReceivedFromUpper
attr title "packets received from higher layer, packetBytes"
vector 110 MultiCell_Standalone.upf.ppp[0].ppp passedUpPk:vector(packetBytes) ETV
attr interpolationmode none
attr recordingmode vector(packetBytes)
attr source packetSentToUpper
attr title "packets passed to higher layer, packetBytes"
vector 111 MultiCell_Standalone.upf.ppp[0] packetDropInterfaceDown:vector(packetBytes) ETV
attr interpolationmode none
attr recordingmode vector(packetBytes)
attr source packetDropReasonIsInterfaceDown(packetDropped)
attr title "packet drops: interface down, packetBytes"
vector 112 MultiCell_Standalone.upf.ppp[0] packetDropNoCarrier:vector(packetBytes) ETV
attr interpolationmode none
attr recordingmode vector(packetBytes)
attr source packetDropReasonIsNoCarrier(packetDropped)
attr title "packet drops: no carrier, packetBytes"
vector 113 MultiCell_Standalone.upf.ipv4.ip packetDropAddressResolutionFailed:vector(packetBytes) ETV
attr interpolationmode none
attr recordingmode vector(packetBytes)
attr source packetDropReasonIsAddressResolutionFailed(packetDropped)
attr title "packet drop: address resolution failed, packetBytes"
vector 114 MultiCell_Standalone.upf.ipv4.ip packetDropHopLimitReached:vector(packetBytes) ETV
attr interpolationmode none
attr recordingmode vector(packetBytes)
attr source packetDropReasonIsHopLimitReached(packetDropped)
attr title "packet drop: hop limit reached, packetBytes"
vector 115 MultiCell_Standalone.upf.ipv4.ip packetDropForwardingDisabled:vector(packetBytes) ETV
attr interpolationmode none
attr recordingmode vector(packetBytes)
attr source packetDropReasonIsForwardingDisabled(packetDropped)
attr title "packet drop: forwarding disabled, packetBytes"
vector 116 MultiCell_Standalone.upf.ipv4.ip packetDropNoInterfaceFound:vector(packetBytes) ETV
attr interpolationmode none
attr recordingmode vector(packetBytes)
attr source packetDropReasonIsNoInterfaceFound(packetDropped)
attr title "packet drop: no interface found, packetBytes"
vector 117 MultiCell_Standalone.upf.ipv4.ip packetDropNoRouteFound:vector(packetBytes) ETV
attr interpolationmode none
attr recordingmode vector(packetBytes)
attr source packetDropReasonIsNoRouteFound(packetDropped)
attr title "packet drop: no route found, packetBytes"
vector 118 MultiCell_Standalone.upf.ipv4.ip packetDropUndefined:vector(packetBytes) ETV
attr interpolationmode none
attr recordingmode vector(packetBytes)
attr source packetDropReasonIsUndefined(packetDropped)
attr title "packet drop: undefined, packetBytes"
vector 119 MultiCell_Standalone.upf.ipv4.arp arpRequestSent:vector(packetBytes) ETV
attr recordingmode vector(packetBytes)
attr source arpRequestSent
attr title "ARP request sent, packetBytes"
vector 120 MultiCell_Standalone.upf.ipv4.arp arpReplySent:vector(packetBytes) ETV
attr recordingmode vector(packetBytes)
attr source arpReplySent
attr title "ARP replies sent, packetBytes"
vector 121 MultiCell_Standalone.upf.pppIf.queue queueLength:vector ETV
attr autoWarmupFilter false
attr interpolationmode sample-hold
attr recordingmode vector
attr source "warmup(atomic(constant0(packetPushEnded) + count(packetPushStarted) - count(packetPulled) - count(packetRemoved) - count(packetDropped)))"
attr title "queue length"
attr unit pk
vector 122 MultiCell_Standalone.upf.pppIf.queue queueBitLength:vector ETV
attr autoWarmupFilter false
attr interpolationmode sample-hold
attr recordingmode vector
attr source "warmup(atomic(constant0(packetPushEnded) + sum(packetLength(packetPushStarted)) - sum(packetLength(packetPulled)) - sum(packetLength(packetRemoved)) - sum(packetLength(packetDropped))))"
attr title "queue bit length"
attr unit b
vector 123 MultiCell_Standalone.upf.pppIf.queue queueingTime:vector ETV
attr interpolationmode none
attr recordingmode vector
attr source queueingTime(packetPulled)
attr title "queueing times"
attr unit s
vector 124 MultiCell_Standalone.upf.pppIf.queue incomingPacketLengths:vector ETV
attr interpolationmode none
attr recordingmode vector
attr source packetLength(packetPushStarted)
attr title "incoming packet lengths"
attr unit b
vector 125 MultiCell_Standalone.upf.pppIf.queue incomingDataRate:vector ETV
attr interpolationmode linear
attr recordingmode vector
attr source throughput(packetPushStarted)
attr title "incoming datarate"
attr unit bps
vector 126 MultiCell_Standalone.upf.pppIf.queue outgoingPacketLengths:vector ETV
attr interpolationmode none
attr recordingmode vector
attr source packetLength(packetPulled)
attr title "outgoing packet lengths"
attr unit b
vector 127 MultiCell_Standalone.upf.pppIf.queue outgoingDataRate:vector ETV
attr interpolationmode linear
attr recordingmode vector
attr source throughput(packetPulled)
attr title "outgoing datarate"
attr unit bps
vector 128 MultiCell_Standalone.upf.pppIf.queue droppedPacketLengthsQueueOverflow:vector ETV
attr interpolationmode none
attr recordingmode vector
attr source packetLength(packetDropReasonIsQueueOverflow(packetDropped))
attr title "dropped packet lengths: queue overflow"
attr unit b
vector 129 MultiCell_Standalone.upf.pppIf.queue flowQueueingTime:vector ETV
attr interpolationmode none
attr recordingmode vector
attr source queueingTime(demuxFlow(packetPulled))
attr title "flow queueing times"
attr unit s
vector 130 MultiCell_Standalone.upf.pppIf.queue flowIncomingDataRate:vector ETV
attr interpolationmode linear
attr recordingmode vector
attr source throughput(flowPacketLength(demuxFlow(packetPushStarted)))
attr title "flow specific incoming data rate"
attr unit bps
vector 131 MultiCell_Standalone.upf.pppIf.queue flowOutgoingDataRate:vector ETV
attr interpolationmode linear
attr recordingmode vector
attr source throughput(flowPacketLength(demuxFlow(packetPulled)))
attr title "flow specific outgoing data rate"
attr unit bps
vector 132 MultiCell_Standalone.upf.pppIf.ppp transmissionState:vector ETV
attr interpolationmode sample-hold
attr recordingmode vector
attr source transmissionStateChanged
attr title "tx state"
vector 133 MultiCell_Standalone.upf.pppIf.ppp txPk:vector(packetBytes) ETV
attr interpolationmode none
attr recordingmode vector(packetBytes)
attr source packetSentToLower
attr title "packets transmitted, packetBytes"
vector 134 MultiCell_Standalone.upf.pppIf.ppp rxPkOk:vector(packetBytes) ETV
attr interpolationmode none
attr recordingmode vector(packetBytes)
attr source rxPkOk
attr title "packets received OK, packetBytes"
vector 135 MultiCell_Standalone.upf.pppIf.ppp packetDropIncorrectlyReceived:vector(packetBytes) ETV
attr interpolationmode none
attr recordingmode vector(packetBytes)
attr source packetDropReasonIsIncorrectlyReceived(packetDropped)
attr title "packet drop: incorrectly received, packetBytes"
vector 136 MultiCell_Standalone.upf.pppIf.ppp packetDropInterfaceDown:vector(packetBytes) ETV
attr interpolationmode none
attr recordingmode vector(packetBytes)
attr source packetDropReasonIsInterfaceDown(packetDropped)
attr title "packet drop: interface down, packetBytes"
vector 137 MultiCell_Standalone.upf.pppIf.ppp rcvdPkFromHl:vector(packetBytes) ETV
attr interpolationmode none
attr recordingmode vector(packetBytes)
attr source packetReceivedFromUpper
attr title "packets received from higher layer, packetBytes"
vector 138 MultiCell_Standalone.upf.pppIf.ppp passedUpPk:vector(packetBytes) ETV
attr interpolationmode none
attr recordingmode vector(packetBytes)
attr source packetSentToUpper
attr title "packets passed to higher layer, packetBytes"
vector 139 MultiCell_Standalone.upf.pppIf packetDropInterfaceDown:vector(packetBytes) ETV
attr interpolationmode none
attr recordingmode vector(packetBytes)
attr source packetDropReasonIsInterfaceDown(packetDropped)
attr title "packet drops: interface down, packetBytes"
vector 140 MultiCell_Standalone.upf.pppIf packetDropNoCarrier:vector(packetBytes) ETV
attr interpolationmode none
attr recordingmode vector(packetBytes)
attr source packetDropReasonIsNoCarrier(packetDropped)
attr title "packet drops: no carrier, packetBytes"
vector 141 MultiCell_Standalone.upf.udp packetSent:vector(packetBytes) ETV
attr interpolationmode none
attr recordingmode vector(packetBytes)
attr source packetSent
attr title "packets sent, packetBytes"
vector 142 MultiCell_Standalone.upf.udp packetReceived:vector(packetBytes) ETV
attr interpolationmode none
attr recordingmode vector(packetBytes)
attr source packetReceived
attr title "packets received, packetBytes"
vector 143 MultiCell_Standalone.upf.udp passedUpPk:vector(count) ETV
attr interpolationmode none
attr recordingmode vector(count)
attr source packetSentToUpper
attr title "packets passed up, count"
vector 144 MultiCell_Standalone.upf.udp droppedPkWrongPort:vector(count) ETV
attr interpolationmode none
attr recordingmode vector(count)
attr source packetDropReasonIsNoPortFound(packetDropped)
attr title "packets dropped (wrong port), count"
vector 145 MultiCell_Standalone.upf.udp droppedPkBadChecksum:vector(count) ETV
attr interpolationmode none
attr recordingmode vector(count)
attr source packetDropReasonIsIncorrectlyReceived(packetDropped)
attr title "packets dropped (checksum error), count"
vector 146 MultiCell_Standalone.iUpf.lo[0].lo rcvdPkFromHl:vector(packetBytes) ETV
attr interpolationmode none
attr recordingmode vector(packetBytes)
attr source packetReceivedFromUpper
attr title "packets received from higher layer, packetBytes"
vector 147 MultiCell_Standalone.iUpf.lo[0].lo passedUpPk:vector(packetBytes) ETV
attr interpolationmode none
attr recordingmode vector(packetBytes)
attr source packetSentToUpper
attr title "packets passed to higher layer, packetBytes"
vector 148 MultiCell_Standalone.iUpf.lo[0] packetDropInterfaceDown:vector(packetBytes) ETV
attr interpolationmode none
attr recordingmode vector(packetBytes)
attr source packetDropReasonIsInterfaceDown(packetDropped)
attr title "packet drops: interface down, packetBytes"
vector 149 MultiCell_Standalone.iUpf.lo[0] packetDropNoCarrier:vector(packetBytes) ETV
attr interpolationmode none
attr recordingmode vector(packetBytes)
attr source packetDropReasonIsNoCarrier(packetDropped)
attr title "packet drops: no carrier, packetBytes"
vector 150 MultiCell_Standalone.iUpf.ppp[0].queue queueLength:vector ETV
attr autoWarmupFilter false
attr interpolationmode sample-hold
attr recordingmode vector
attr source "warmup(atomic(constant0(packetPushEnded) + count(packetPushStarted) - count(packetPulled) - count(packetRemoved) - count(packetDropped)))"
attr title "queue length"
attr unit pk
vector 151 MultiCell_Standalone.iUpf.ppp[0].queue queueBitLength:vector ETV
attr autoWarmupFilter false
attr interpolationmode sample-hold
attr recordingmode vector
attr source "warmup(atomic(constant0(packetPushEnded) + sum(packetLength(packetPushStarted)) - sum(packetLength(packetPulled)) - sum(packetLength(packetRemoved)) - sum(packetLength(packetDropped))))"
attr title "queue bit length"
attr unit b
vector 152 MultiCell_Standalone.iUpf.ppp[0].queue queueingTime:vector ETV
attr interpolationmode none
attr recordingmode vector
attr source queueingTime(packetPulled)
attr title "queueing times"
attr unit s
vector 153 MultiCell_Standalone.iUpf.ppp[0].queue incomingPacketLengths:vector ETV
attr interpolationmode none
attr recordingmode vector
attr source packetLength(packetPushStarted)
attr title "incoming packet lengths"
attr unit b
vector 154 MultiCell_Standalone.iUpf.ppp[0].queue incomingDataRate:vector ETV
attr interpolationmode linear
attr recordingmode vector
attr source throughput(packetPushStarted)
attr title "incoming datarate"
attr unit bps
vector 155 MultiCell_Standalone.iUpf.ppp[0].queue outgoingPacketLengths:vector ETV
attr interpolationmode none
attr recordingmode vector
attr source packetLength(packetPulled)
attr title "outgoing packet lengths"
attr unit b
vector 156 MultiCell_Standalone.iUpf.ppp[0].queue outgoingDataRate:vector ETV
attr interpolationmode linear
attr recordingmode vector
attr source throughput(packetPulled)
attr title "outgoing datarate"
attr unit bps
vector 157 MultiCell_Standalone.iUpf.ppp[0].queue droppedPacketLengthsQueueOverflow:vector ETV
attr interpolationmode none
attr recordingmode vector
attr source packetLength(packetDropReasonIsQueueOverflow(packetDropped))
attr title "dropped packet lengths: queue overflow"
attr unit b
vector 158 MultiCell_Standalone.iUpf.ppp[0].queue flowQueueingTime:vector ETV
attr interpolationmode none
attr recordingmode vector
attr source queueingTime(demuxFlow(packetPulled))
attr title "flow queueing times"
attr unit s
vector 159 MultiCell_Standalone.iUpf.ppp[0].queue flowIncomingDataRate:vector ETV
attr interpolationmode linear
attr recordingmode vector
attr source throughput(flowPacketLength(demuxFlow(packetPushStarted)))
attr title "flow specific incoming data rate"
attr unit bps
vector 160 MultiCell_Standalone.iUpf.ppp[0].queue flowOutgoingDataRate:vector ETV
attr interpolationmode linear
attr recordingmode vector
attr source throughput(flowPacketLength(demuxFlow(packetPulled)))
attr title "flow specific outgoing data rate"
attr unit bps
vector 161 MultiCell_Standalone.iUpf.ppp[0].ppp transmissionState:vector ETV
attr interpolationmode sample-hold
attr recordingmode vector
attr source transmissionStateChanged
attr title "tx state"
vector 162 MultiCell_Standalone.iUpf.ppp[0].ppp txPk:vector(packetBytes) ETV
attr interpolationmode none
attr recordingmode vector(packetBytes)
attr source packetSentToLower
attr title "packets transmitted, packetBytes"
vector 163 MultiCell_Standalone.iUpf.ppp[0].ppp rxPkOk:vector(packetBytes) ETV
attr interpolationmode none
attr recordingmode vector(packetBytes)
attr source rxPkOk
attr title "packets received OK, packetBytes"
vector 164 MultiCell_Standalone.iUpf.ppp[0].ppp packetDropIncorrectlyReceived:vector(packetBytes) ETV
attr interpolationmode none
attr recordingmode vector(packetBytes)
attr source packetDropReasonIsIncorrectlyReceived(packetDropped)
attr title "packet drop: incorrectly received, packetBytes"
vector 165 MultiCell_Standalone.iUpf.ppp[0].ppp packetDropInterfaceDown:vector(packetBytes) ETV
attr interpolationmode none
attr recordingmode vector(packetBytes)
attr source packetDropReasonIsInterfaceDown(packetDropped)
attr title "packet drop: interface down, packetBytes"
vector 166 MultiCell_Standalone.iUpf.ppp[0].ppp rcvdPkFromHl:vector(packetBytes) ETV
attr interpolationmode none
attr recordingmode vector(packetBytes)
attr source packetReceivedFromUpper
attr title "packets received from higher layer, packetBytes"
vector 167 MultiCell_Standalone.iUpf.ppp[0].ppp passedUpPk:vector(packetBytes) ETV
attr interpolationmode none
attr recordingmode vector(packetBytes)
attr source packetSentToUpper
attr title "packets passed to higher layer, packetBytes"
vector 168 MultiCell_Standalone.iUpf.ppp[0] packetDropInterfaceDown:vector(packetBytes) ETV
attr interpolationmode none
attr recordingmode vector(packetBytes)
attr source packetDropReasonIsInterfaceDown(packetDropped)
attr title "packet drops: interface down, packetBytes"
vector 169 MultiCell_Standalone.iUpf.ppp[0] packetDropNoCarrier:vector(packetBytes) ETV
attr interpolationmode none
attr recordingmode vector(packetBytes)
attr source packetDropReasonIsNoCarrier(packetDropped)
attr title "packet drops: no carrier, packetBytes"
vector 170 MultiCell_Standalone.iUpf.ppp[1].queue queueLength:vector ETV
attr autoWarmupFilter false
attr interpolationmode sample-hold
attr recordingmode vector
attr source "warmup(atomic(constant0(packetPushEnded) + count(packetPushStarted) - count(packetPulled) - count(packetRemoved) - count(packetDropped)))"
attr title "queue length"
attr unit pk
vector 171 MultiCell_Standalone.iUpf.ppp[1].queue queueBitLength:vector ETV
attr autoWarmupFilter false
attr interpolationmode sample-hold
attr recordingmode vector
attr source "warmup(atomic(constant0(packetPushEnded) + sum(packetLength(packetPushStarted)) - sum(packetLength(packetPulled)) - sum(packetLength(packetRemoved)) - sum(packetLength(packetDropped))))"
attr title "queue bit length"
attr unit b
vector 172 MultiCell_Standalone.iUpf.ppp[1].queue queueingTime:vector ETV
attr interpolationmode none
attr recordingmode vector
attr source queueingTime(packetPulled)
attr title "queueing times"
attr unit s
vector 173 MultiCell_Standalone.iUpf.ppp[1].queue incomingPacketLengths:vector ETV
attr interpolationmode none
attr recordingmode vector
attr source packetLength(packetPushStarted)
attr title "incoming packet lengths"
attr unit b
vector 174 MultiCell_Standalone.iUpf.ppp[1].queue incomingDataRate:vector ETV
attr interpolationmode linear
attr recordingmode vector
attr source throughput(packetPushStarted)
attr title "incoming datarate"
attr unit bps
vector 175 MultiCell_Standalone.iUpf.ppp[1].queue outgoingPacketLengths:vector ETV
attr interpolationmode none
attr recordingmode vector
attr source packetLength(packetPulled)
attr title "outgoing packet lengths"
attr unit b
vector 176 MultiCell_Standalone.iUpf.ppp[1].queue outgoingDataRate:vector ETV
attr interpolationmode linear
attr recordingmode vector
attr source throughput(packetPulled)
attr title "outgoing datarate"
attr unit bps
vector 177 MultiCell_Standalone.iUpf.ppp[1].queue droppedPacketLengthsQueueOverflow:vector ETV
attr interpolationmode none
attr recordingmode vector
attr source packetLength(packetDropReasonIsQueueOverflow(packetDropped))
attr title "dropped packet lengths: queue overflow"
attr unit b
vector 178 MultiCell_Standalone.iUpf.ppp[1].queue flowQueueingTime:vector ETV
attr interpolationmode none
attr recordingmode vector
attr source queueingTime(demuxFlow(packetPulled))
attr title "flow queueing times"
attr unit s
vector 179 MultiCell_Standalone.iUpf.ppp[1].queue flowIncomingDataRate:vector ETV
attr interpolationmode linear
attr recordingmode vector
attr source throughput(flowPacketLength(demuxFlow(packetPushStarted)))
attr title "flow specific incoming data rate"
attr unit bps
vector 180 MultiCell_Standalone.iUpf.ppp[1].queue flowOutgoingDataRate:vector ETV
attr interpolationmode linear
attr recordingmode vector
attr source throughput(flowPacketLength(demuxFlow(packetPulled)))
attr title "flow specific outgoing data rate"
attr unit bps
vector 181 MultiCell_Standalone.iUpf.ppp[1].ppp transmissionState:vector ETV
attr interpolationmode sample-hold
attr recordingmode vector
attr source transmissionStateChanged
attr title "tx state"
vector 182 MultiCell_Standalone.iUpf.ppp[1].ppp txPk:vector(packetBytes) ETV
attr interpolationmode none
attr recordingmode vector(packetBytes)
attr source packetSentToLower
attr title "packets transmitted, packetBytes"
vector 183 MultiCell_Standalone.iUpf.ppp[1].ppp rxPkOk:vector(packetBytes) ETV
attr interpolationmode none
attr recordingmode vector(packetBytes)
attr source rxPkOk
attr title "packets received OK, packetBytes"
vector 184 MultiCell_Standalone.iUpf.ppp[1].ppp packetDropIncorrectlyReceived:vector(packetBytes) ETV
attr interpolationmode none
attr recordingmode vector(packetBytes)
attr source packetDropReasonIsIncorrectlyReceived(packetDropped)
attr title "packet drop: incorrectly received, packetBytes"
vector 185 MultiCell_Standalone.iUpf.ppp[1].ppp packetDropInterfaceDown:vector(packetBytes) ETV
attr interpolationmode none
attr recordingmode vector(packetBytes)
attr source packetDropReasonIsInterfaceDown(packetDropped)
attr title "packet drop: interface down, packetBytes"
vector 186 MultiCell_Standalone.iUpf.ppp[1].ppp rcvdPkFromHl:vector(packetBytes) ETV
attr interpolationmode none
attr recordingmode vector(packetBytes)
attr source packetReceivedFromUpper
attr title "packets received from higher layer, packetBytes"
vector 187 MultiCell_Standalone.iUpf.ppp[1].ppp passedUpPk:vector(packetBytes) ETV
attr interpolationmode none
attr recordingmode vector(packetBytes)
attr source packetSentToUpper
attr title "packets passed to higher layer, packetBytes"
vector 188 MultiCell_Standalone.iUpf.ppp[1] packetDropInterfaceDown:vector(packetBytes) ETV
attr interpolationmode none
attr recordingmode vector(packetBytes)
attr source packetDropReasonIsInterfaceDown(packetDropped)
attr title "packet drops: interface down, packetBytes"
vector 189 MultiCell_Standalone.iUpf.ppp[1] packetDropNoCarrier:vector(packetBytes) ETV
attr interpolationmode none
attr recordingmode vector(packetBytes)
attr source packetDropReasonIsNoCarrier(packetDropped)
attr title "packet drops: no carrier, packetBytes"
vector 190 MultiCell_Standalone.iUpf.ppp[2].queue queueLength:vector ETV
attr autoWarmupFilter false
attr interpolationmode sample-hold
attr recordingmode vector
attr source "warmup(atomic(constant0(packetPushEnded) + count(packetPushStarted) - count(packetPulled) - count(packetRemoved) - count(packetDropped)))"
attr title "queue length"
attr unit pk
vector 191 MultiCell_Standalone.iUpf.ppp[2].queue queueBitLength:vector ETV
attr autoWarmupFilter false
attr interpolationmode sample-hold
attr recordingmode vector
attr source "warmup(atomic(constant0(packetPushEnded) + sum(packetLength(packetPushStarted)) - sum(packetLength(packetPulled)) - sum(packetLength(packetRemoved)) - sum(packetLength(packetDropped))))"
attr title "queue bit length"
attr unit b
vector 192 MultiCell_Standalone.iUpf.ppp[2].queue queueingTime:vector ETV
attr interpolationmode none
attr recordingmode vector
attr source queueingTime(packetPulled)
attr title "queueing times"
attr unit s
vector 193 MultiCell_Standalone.iUpf.ppp[2].queue incomingPacketLengths:vector ETV
attr interpolationmode none
attr recordingmode vector
attr source packetLength(packetPushStarted)
attr title "incoming packet lengths"
attr unit b
vector 194 MultiCell_Standalone.iUpf.ppp[2].queue incomingDataRate:vector ETV
attr interpolationmode linear
attr recordingmode vector
attr source throughput(packetPushStarted)
attr title "incoming datarate"
attr unit bps
vector 195 MultiCell_Standalone.iUpf.ppp[2].queue outgoingPacketLengths:vector ETV
attr interpolationmode none
attr recordingmode vector
attr source packetLength(packetPulled)
attr title "outgoing packet lengths"
attr unit b
vector 196 MultiCell_Standalone.iUpf.ppp[2].queue outgoingDataRate:vector ETV
attr interpolationmode linear
attr recordingmode vector
attr source throughput(packetPulled)
attr title "outgoing datarate"
attr unit bps
vector 197 MultiCell_Standalone.iUpf.ppp[2].queue droppedPacketLengthsQueueOverflow:vector ETV
attr interpolationmode none
attr recordingmode vector
attr source packetLength(packetDropReasonIsQueueOverflow(packetDropped))
attr title "dropped packet lengths: queue overflow"
attr unit b
vector 198 MultiCell_Standalone.iUpf.ppp[2].queue flowQueueingTime:vector ETV
attr interpolationmode none
attr recordingmode vector
attr source queueingTime(demuxFlow(packetPulled))
attr title "flow queueing times"
attr unit s
vector 199 MultiCell_Standalone.iUpf.ppp[2].queue flowIncomingDataRate:vector ETV
attr interpolationmode linear
attr recordingmode vector
attr source throughput(flowPacketLength(demuxFlow(packetPushStarted)))
attr title "flow specific incoming data rate"
attr unit bps
vector 200 MultiCell_Standalone.iUpf.ppp[2].queue flowOutgoingDataRate:vector ETV
attr interpolationmode linear
attr recordingmode vector
attr source throughput(flowPacketLength(demuxFlow(packetPulled)))
attr title "flow specific outgoing data rate"
attr unit bps
vector 201 MultiCell_Standalone.iUpf.ppp[2].ppp transmissionState:vector ETV
attr interpolationmode sample-hold
attr recordingmode vector
attr source transmissionStateChanged
attr title "tx state"
vector 202 MultiCell_Standalone.iUpf.ppp[2].ppp txPk:vector(packetBytes) ETV
attr interpolationmode none
attr recordingmode vector(packetBytes)
attr source packetSentToLower
attr title "packets transmitted, packetBytes"
vector 203 MultiCell_Standalone.iUpf.ppp[2].ppp rxPkOk:vector(packetBytes) ETV
attr interpolationmode none
attr recordingmode vector(packetBytes)
attr source rxPkOk
attr title "packets received OK, packetBytes"
vector 204 MultiCell_Standalone.iUpf.ppp[2].ppp packetDropIncorrectlyReceived:vector(packetBytes) ETV
attr interpolationmode none
attr recordingmode vector(packetBytes)
attr source packetDropReasonIsIncorrectlyReceived(packetDropped)
attr title "packet drop: incorrectly received, packetBytes"
vector 205 MultiCell_Standalone.iUpf.ppp[2].ppp packetDropInterfaceDown:vector(packetBytes) ETV
attr interpolationmode none
attr recordingmode vector(packetBytes)
attr source packetDropReasonIsInterfaceDown(packetDropped)
attr title "packet drop: interface down, packetBytes"
vector 206 MultiCell_Standalone.iUpf.ppp[2].ppp rcvdPkFromHl:vector(packetBytes) ETV
attr interpolationmode none
attr recordingmode vector(packetBytes)
attr source packetReceivedFromUpper
attr title "packets received from higher layer, packetBytes"
vector 207 MultiCell_Standalone.iUpf.ppp[2].ppp passedUpPk:vector(packetBytes) ETV
attr interpolationmode none
attr recordingmode vector(packetBytes)
attr source packetSentToUpper
attr title "packets passed to higher layer, packetBytes"
vector 208 MultiCell_Standalone.iUpf.ppp[2] packetDropInterfaceDown:vector(packetBytes) ETV
attr interpolationmode none
attr recordingmode vector(packetBytes)
attr source packetDropReasonIsInterfaceDown(packetDropped)
attr title "packet drops: interface down, packetBytes"
vector 209 MultiCell_Standalone.iUpf.ppp[2] packetDropNoCarrier:vector(packetBytes) ETV
attr interpolationmode none
attr recordingmode vector(packetBytes)
attr source packetDropReasonIsNoCarrier(packetDropped)
attr title "packet drops: no carrier, packetBytes"
vector 210 MultiCell_Standalone.iUpf.ipv4.ip packetDropAddressResolutionFailed:vector(packetBytes) ETV
attr interpolationmode none
attr recordingmode vector(packetBytes)
attr source packetDropReasonIsAddressResolutionFailed(packetDropped)
attr title "packet drop: address resolution failed, packetBytes"
vector 211 MultiCell_Standalone.iUpf.ipv4.ip packetDropHopLimitReached:vector(packetBytes) ETV
attr interpolationmode none
attr recordingmode vector(packetBytes)
attr source packetDropReasonIsHopLimitReached(packetDropped)
attr title "packet drop: hop limit reached, packetBytes"
vector 212 MultiCell_Standalone.iUpf.ipv4.ip packetDropForwardingDisabled:vector(packetBytes) ETV
attr interpolationmode none
attr recordingmode vector(packetBytes)
attr source packetDropReasonIsForwardingDisabled(packetDropped)
attr title "packet drop: forwarding disabled, packetBytes"
vector 213 MultiCell_Standalone.iUpf.ipv4.ip packetDropNoInterfaceFound:vector(packetBytes) ETV
attr interpolationmode none
attr recordingmode vector(packetBytes)
attr source packetDropReasonIsNoInterfaceFound(packetDropped)
attr title "packet drop: no interface found, packetBytes"
vector 214 MultiCell_Standalone.iUpf.ipv4.ip packetDropNoRouteFound:vector(packetBytes) ETV
attr interpolationmode none
attr recordingmode vector(packetBytes)
attr source packetDropReasonIsNoRouteFound(packetDropped)
attr title "packet drop: no route found, packetBytes"
vector 215 MultiCell_Standalone.iUpf.ipv4.ip packetDropUndefined:vector(packetBytes) ETV
attr interpolationmode none
attr recordingmode vector(packetBytes)
attr source packetDropReasonIsUndefined(packetDropped)
attr title "packet drop: undefined, packetBytes"
vector 216 MultiCell_Standalone.iUpf.ipv4.arp arpRequestSent:vector(packetBytes) ETV
attr recordingmode vector(packetBytes)
attr source arpRequestSent
attr title "ARP request sent, packetBytes"
vector 217 MultiCell_Standalone.iUpf.ipv4.arp arpReplySent:vector(packetBytes) ETV
attr recordingmode vector(packetBytes)
attr source arpReplySent
attr title "ARP replies sent, packetBytes"
vector 218 MultiCell_Standalone.iUpf.pppIf.queue queueLength:vector ETV
attr autoWarmupFilter false
attr interpolationmode sample-hold
attr recordingmode vector
attr source "warmup(atomic(constant0(packetPushEnded) + count(packetPushStarted) - count(packetPulled) - count(packetRemoved) - count(packetDropped)))"
attr title "queue length"
attr unit pk
vector 219 MultiCell_Standalone.iUpf.pppIf.queue queueBitLength:vector ETV
attr autoWarmupFilter false
attr interpolationmode sample-hold
attr recordingmode vector
attr source "warmup(atomic(constant0(packetPushEnded) + sum(packetLength(packetPushStarted)) - sum(packetLength(packetPulled)) - sum(packetLength(packetRemoved)) - sum(packetLength(packetDropped))))"
attr title "queue bit length"
attr unit b
vector 220 MultiCell_Standalone.iUpf.pppIf.queue queueingTime:vector ETV
attr interpolationmode none
attr recordingmode vector
attr source queueingTime(packetPulled)
attr title "queueing times"
attr unit s
vector 221 MultiCell_Standalone.iUpf.pppIf.queue incomingPacketLengths:vector ETV
attr interpolationmode none
attr recordingmode vector
attr source packetLength(packetPushStarted)
attr title "incoming packet lengths"
attr unit b
vector 222 MultiCell_Standalone.iUpf.pppIf.queue incomingDataRate:vector ETV
attr interpolationmode linear
attr recordingmode vector
attr source throughput(packetPushStarted)
attr title "incoming datarate"
attr unit bps
vector 223 MultiCell_Standalone.iUpf.pppIf.queue outgoingPacketLengths:vector ETV
attr interpolationmode none
attr recordingmode vector
attr source packetLength(packetPulled)
attr title "outgoing packet lengths"
attr unit b
vector 224 MultiCell_Standalone.iUpf.pppIf.queue outgoingDataRate:vector ETV
attr interpolationmode linear
attr recordingmode vector
attr source throughput(packetPulled)
attr title "outgoing datarate"
attr unit bps
vector 225 MultiCell_Standalone.iUpf.pppIf.queue droppedPacketLengthsQueueOverflow:vector ETV
attr interpolationmode none
attr recordingmode vector
attr source packetLength(packetDropReasonIsQueueOverflow(packetDropped))
attr title "dropped packet lengths: queue overflow"
attr unit b
vector 226 MultiCell_Standalone.iUpf.pppIf.queue flowQueueingTime:vector ETV
attr interpolationmode none
attr recordingmode vector
attr source queueingTime(demuxFlow(packetPulled))
attr title "flow queueing times"
attr unit s
vector 227 MultiCell_Standalone.iUpf.pppIf.queue flowIncomingDataRate:vector ETV
attr interpolationmode linear
attr recordingmode vector
attr source throughput(flowPacketLength(demuxFlow(packetPushStarted)))
attr title "flow specific incoming data rate"
attr unit bps
vector 228 MultiCell_Standalone.iUpf.pppIf.queue flowOutgoingDataRate:vector ETV
attr interpolationmode linear
attr recordingmode vector
attr source throughput(flowPacketLength(demuxFlow(packetPulled)))
attr title "flow specific outgoing data rate"
attr unit bps
vector 229 MultiCell_Standalone.iUpf.pppIf.ppp transmissionState:vector ETV
attr interpolationmode sample-hold
attr recordingmode vector
attr source transmissionStateChanged
attr title "tx state"
vector 230 MultiCell_Standalone.iUpf.pppIf.ppp txPk:vector(packetBytes) ETV
attr interpolationmode none
attr recordingmode vector(packetBytes)
attr source packetSentToLower
attr title "packets transmitted, packetBytes"
vector 231 MultiCell_Standalone.iUpf.pppIf.ppp rxPkOk:vector(packetBytes) ETV
attr interpolationmode none
attr recordingmode vector(packetBytes)
attr source rxPkOk
attr title "packets received OK, packetBytes"
vector 232 MultiCell_Standalone.iUpf.pppIf.ppp packetDropIncorrectlyReceived:vector(packetBytes) ETV
attr interpolationmode none
attr recordingmode vector(packetBytes)
attr source packetDropReasonIsIncorrectlyReceived(packetDropped)
attr title "packet drop: incorrectly received, packetBytes"
vector 233 MultiCell_Standalone.iUpf.pppIf.ppp packetDropInterfaceDown:vector(packetBytes) ETV
attr interpolationmode none
attr recordingmode vector(packetBytes)
attr source packetDropReasonIsInterfaceDown(packetDropped)
attr title "packet drop: interface down, packetBytes"
vector 234 MultiCell_Standalone.iUpf.pppIf.ppp rcvdPkFromHl:vector(packetBytes) ETV
attr interpolationmode none
attr recordingmode vector(packetBytes)
attr source packetReceivedFromUpper
attr title "packets received from higher layer, packetBytes"
vector 235 MultiCell_Standalone.iUpf.pppIf.ppp passedUpPk:vector(packetBytes) ETV
attr interpolationmode none
attr recordingmode vector(packetBytes)
attr source packetSentToUpper
attr title "packets passed to higher layer, packetBytes"
vector 236 MultiCell_Standalone.iUpf.pppIf packetDropInterfaceDown:vector(packetBytes) ETV
attr interpolationmode none
attr recordingmode vector(packetBytes)
attr source packetDropReasonIsInterfaceDown(packetDropped)
attr title "packet drops: interface down, packetBytes"
vector 237 MultiCell_Standalone.iUpf.pppIf packetDropNoCarrier:vector(packetBytes) ETV
attr interpolationmode none
attr recordingmode vector(packetBytes)
attr source packetDropReasonIsNoCarrier(packetDropped)
attr title "packet drops: no carrier, packetBytes"
vector 238 MultiCell_Standalone.iUpf.udp packetSent:vector(packetBytes) ETV
attr interpolationmode none
attr recordingmode vector(packetBytes)
attr source packetSent
attr title "packets sent, packetBytes"
vector 239 MultiCell_Standalone.iUpf.udp packetReceived:vector(packetBytes) ETV
attr interpolationmode none
attr recordingmode vector(packetBytes)
attr source packetReceived
attr title "packets received, packetBytes"
vector 240 MultiCell_Standalone.iUpf.udp passedUpPk:vector(count) ETV
attr interpolationmode none
attr recordingmode vector(count)
attr source packetSentToUpper
attr title "packets passed up, count"
vector 241 MultiCell_Standalone.iUpf.udp droppedPkWrongPort:vector(count) ETV
attr interpolationmode none
attr recordingmode vector(count)
attr source packetDropReasonIsNoPortFound(packetDropped)
attr title "packets dropped (wrong port), count"
vector 242 MultiCell_Standalone.iUpf.udp droppedPkBadChecksum:vector(count) ETV
attr interpolationmode none
attr recordingmode vector(count)
attr source packetDropReasonIsIncorrectlyReceived(packetDropped)
attr title "packets dropped (checksum error), count"
vector 243 MultiCell_Standalone.gnb1.cellularNic.pdcpRrc receivedPacketFromUpperLayer:vector(packetBytes) ETV
attr interpolationmode none
attr recordingmode vector(packetBytes)
attr source receivedPacketFromUpperLayer
vector 244 MultiCell_Standalone.gnb1.cellularNic.pdcpRrc receivedPacketFromLowerLayer:vector(packetBytes) ETV
attr interpolationmode none
attr recordingmode vector(packetBytes)
attr source receivedPacketFromLowerLayer
vector 245 MultiCell_Standalone.gnb1.cellularNic.pdcpRrc sentPacketToUpperLayer:vector(packetBytes) ETV
attr interpolationmode none
attr recordingmode vector(packetBytes)
attr source sentPacketToUpperLayer
vector 246 MultiCell_Standalone.gnb1.cellularNic.pdcpRrc sentPacketToLowerLayer:vector(packetBytes) ETV
attr interpolationmode none
attr recordingmode vector(packetBytes)
attr source sentPacketToLowerLayer
vector 247 MultiCell_Standalone.gnb1.cellularNic.rlc.tm rlcPacketLossUl:vector ETV
attr recordingmode vector
attr source rlcPacketLossUl
attr title "rlc Packet Loss"
attr unit ""
vector 248 MultiCell_Standalone.gnb1.cellularNic.rlc.tm rlcPacketLossDl:vector ETV
attr recordingmode vector
attr source rlcPacketLossDl
attr title "rlc Packet Loss"
attr unit ""
vector 249 MultiCell_Standalone.gnb1.cellularNic.rlc.tm receivedPacketFromUpperLayer:vector(packetBytes) ETV
attr interpolationmode none
attr recordingmode vector(packetBytes)
attr source receivedPacketFromUpperLayer
vector 250 MultiCell_Standalone.gnb1.cellularNic.rlc.tm receivedPacketFromLowerLayer:vector(packetBytes) ETV
attr interpolationmode none
attr recordingmode vector(packetBytes)
attr source receivedPacketFromLowerLayer
vector 251 MultiCell_Standalone.gnb1.cellularNic.rlc.tm sentPacketToUpperLayer:vector(packetBytes) ETV
attr interpolationmode none
attr recordingmode vector(packetBytes)
attr source sentPacketToUpperLayer
vector 252 MultiCell_Standalone.gnb1.cellularNic.rlc.tm sentPacketToLowerLayer:vector(packetBytes) ETV
attr interpolationmode none
attr recordingmode vector(packetBytes)
attr source sentPacketToLowerLayer
vector 253 MultiCell_Standalone.gnb1.cellularNic.rlc.um rlcDelayDl:vector ETV
attr recordingmode vector
attr source rlcDelayDl
attr title "Delay at the rlc layer DL"
attr unit s
vector 254 MultiCell_Standalone.gnb1.cellularNic.rlc.um rlcThroughputDl:vector ETV
attr recordingmode vector
attr source rlcThroughputDl
attr title "Throughput at the rlc layer DL"
attr unit Bps
vector 255 MultiCell_Standalone.gnb1.cellularNic.rlc.um rlcDelayUl:vector ETV
attr recordingmode vector
attr source rlcDelayUl
attr title "Delay at the rlc layer UL"
attr unit s
vector 256 MultiCell_Standalone.gnb1.cellularNic.rlc.um rlcThroughputUl:vector ETV
attr recordingmode vector
attr source rlcThroughputUl
attr title "Throughput at the rlc layer UL"
attr unit Bps
vector 257 MultiCell_Standalone.gnb1.cellularNic.rlc.um rlcPacketLossUl:vector ETV
attr recordingmode vector
attr source rlcPacketLossUl
attr title "rlc Packet Loss"
attr unit ""
vector 258 MultiCell_Standalone.gnb1.cellularNic.rlc.um rlcPacketLossDl:vector ETV
attr recordingmode vector
attr source rlcPacketLossDl
attr title "rlc Packet Loss"
attr unit ""
vector 259 MultiCell_Standalone.gnb1.cellularNic.rlc.um rlcPacketLossTotal:vector ETV
attr recordingmode vector
attr source rlcPacketLossTotal
attr title "rlc Packet Loss"
attr unit ""
vector 260 MultiCell_Standalone.gnb1.cellularNic.rlc.um rlcPduDelayDl:vector ETV
attr recordingmode vector
attr source rlcPduDelayDl
attr title "Delay at the rlc layer UL"
attr unit s
vector 261 MultiCell_Standalone.gnb1.cellularNic.rlc.um rlcPduThroughputDl:vector ETV
attr recordingmode vector
attr source rlcPduThroughputDl
attr title "Throughput at the rlc layer DL"
attr unit Bps
vector 262 MultiCell_Standalone.gnb1.cellularNic.rlc.um rlcPduDelayUl:vector ETV
attr recordingmode vector
attr source rlcPduDelayUl
attr title "Delay at the rlc layer UL"
attr unit s
vector 263 MultiCell_Standalone.gnb1.cellularNic.rlc.um rlcPduThroughputUl:vector ETV
attr recordingmode vector
attr source rlcPduThroughputUl
attr title "Throughput at the rlc layer UL"
attr unit Bps
vector 264 MultiCell_Standalone.gnb1.cellularNic.rlc.um rlcPduPacketLossUl:vector ETV
attr recordingmode vector
attr source rlcPduPacketLossUl
attr title "rlc Packet Loss"
attr unit ""
vector 265 MultiCell_Standalone.gnb1.cellularNic.rlc.um rlcPduPacketLossDl:vector ETV
attr recordingmode vector
attr source rlcPduPacketLossDl
attr title "rlc Packet Loss"
attr unit ""
vector 266 MultiCell_Standalone.gnb1.cellularNic.rlc.um receivedPacketFromUpperLayer:vector(packetBytes) ETV
attr interpolationmode none
attr recordingmode vector(packetBytes)
attr source receivedPacketFromUpperLayer
vector 267 MultiCell_Standalone.gnb1.cellularNic.rlc.um receivedPacketFromLowerLayer:vector(packetBytes) ETV
attr interpolationmode none
attr recordingmode vector(packetBytes)
attr source receivedPacketFromLowerLayer
vector 268 MultiCell_Standalone.gnb1.cellularNic.rlc.um sentPacketToUpperLayer:vector(packetBytes) ETV
attr interpolationmode none
attr recordingmode vector(packetBytes)
attr source sentPacketToUpperLayer
vector 269 MultiCell_Standalone.gnb1.cellularNic.rlc.um sentPacketToLowerLayer:vector(packetBytes) ETV
attr interpolationmode none
attr recordingmode vector(packetBytes)
attr source sentPacketToLowerLayer
vector 270 MultiCell_Standalone.gnb1.cellularNic.rlc.um rlcDelayD2D:vector ETV
attr recordingmode vector
attr source rlcDelayD2D
attr title "Delay at the rlc layer D2D"
attr unit s
vector 271 MultiCell_Standalone.gnb1.cellularNic.rlc.um rlcThroughputD2D:vector ETV
attr recordingmode vector
attr source rlcThroughputD2D
attr title "Throughput at the rlc layer D2D"
attr unit Bps
vector 272 MultiCell_Standalone.gnb1.cellularNic.rlc.um rlcPacketLossD2D:vector ETV
attr recordingmode vector
attr source rlcPacketLossD2D
attr title "rlc Packet Loss"
attr unit ""
vector 273 MultiCell_Standalone.gnb1.cellularNic.rlc.um rlcCellPacketLossD2D:vector ETV
attr recordingmode vector
attr source rlcCellPacketLossD2D
attr title "rlc Cell Packet Loss"
attr unit ""
vector 274 MultiCell_Standalone.gnb1.cellularNic.rlc.um rlcCellThroughputD2D:vector ETV
attr recordingmode vector
attr source rlcCellThroughputD2D
attr title "Cell Throughput at the rlc layer D2D"
attr unit Bps
vector 275 MultiCell_Standalone.gnb1.cellularNic.rlc.um rlcPduDelayD2D:vector ETV
attr recordingmode vector
attr source rlcPduDelayD2D
attr title "Delay at the rlc layer D2D"
attr unit s
vector 276 MultiCell_Standalone.gnb1.cellularNic.rlc.um rlcPduThroughputD2D:vector ETV
attr recordingmode vector
attr source rlcPduThroughputD2D
attr title "Throughput at the rlc layer D2D"
attr unit Bps
vector 277 MultiCell_Standalone.gnb1.cellularNic.rlc.um rlcPduPacketLossD2D:vector ETV
attr recordingmode vector
attr source rlcPduPacketLossD2D
attr title "rlc Packet Loss"
attr unit ""
vector 278 MultiCell_Standalone.gnb1.cellularNic.mac macDelayDl:vector ETV
attr recordingmode vector
attr source macDelayDl
attr title "Delay at the MAC layer UL"
attr unit s
vector 279 MultiCell_Standalone.gnb1.cellularNic.mac macDelayUl:vector ETV
attr recordingmode vector
attr source macDelayUl
attr title "Delay at the MAC layer UL"
attr unit s
vector 280 MultiCell_Standalone.gnb1.cellularNic.mac harqErrorRateUl:vector ETV
attr recordingmode vector
attr source harqErrorRateUl
attr title "Harq Error Rate Ul"
attr unit ""
vector 281 MultiCell_Standalone.gnb1.cellularNic.mac harqErrorRateDl:vector ETV
attr recordingmode vector
attr source harqErrorRateDl
attr title "Harq Error Rate Dl"
attr unit ""
vector 282 MultiCell_Standalone.gnb1.cellularNic.mac harqTxAttemptsDl:vector ETV
attr recordingmode vector
attr source harqTxAttemptsDl
attr title "Harq Tx Attempts Dl"
attr unit ""
vector 283 MultiCell_Standalone.gnb1.cellularNic.mac harqTxAttemptsUl:vector ETV
attr recordingmode vector
attr source harqTxAttemptsUl
attr title "Harq Tx Attempts Ul"
attr unit ""
vector 284 MultiCell_Standalone.gnb1.cellularNic.mac harqErrorRate_1st_Ul:vector ETV
attr recordingmode vector
attr source harqErrorRate_1st_Ul
attr title "Harq Error Rate Ul (1st tx)"
attr unit ""
vector 285 MultiCell_Standalone.gnb1.cellularNic.mac harqErrorRate_1st_Dl:vector ETV
attr recordingmode vector
attr source harqErrorRate_1st_Dl
attr title "Harq Error Rate Dl (1st tx)"
attr unit ""
vector 286 MultiCell_Standalone.gnb1.cellularNic.mac harqErrorRate_2nd_Ul:vector ETV
attr recordingmode vector
attr source harqErrorRate_2nd_Ul
attr title "Harq Error Rate Ul (2nd tx)"
attr unit ""
vector 287 MultiCell_Standalone.gnb1.cellularNic.mac harqErrorRate_2nd_Dl:vector ETV
attr recordingmode vector
attr source harqErrorRate_2nd_Dl
attr title "Harq Error Rate Dl (2nd tx)"
attr unit ""
vector 288 MultiCell_Standalone.gnb1.cellularNic.mac harqErrorRate_3rd_Ul:vector ETV
attr recordingmode vector
attr source harqErrorRate_3rd_Ul
attr title "Harq Error Rate Ul (3rd tx)"
attr unit ""
vector 289 MultiCell_Standalone.gnb1.cellularNic.mac harqErrorRate_3rd_Dl:vector ETV
attr recordingmode vector
attr source harqErrorRate_3rd_Dl
attr title "Harq Error Rate Dl (3rd tx)"
attr unit ""
vector 290 MultiCell_Standalone.gnb1.cellularNic.mac harqErrorRate_4th_Ul:vector ETV
attr recordingmode vector
attr source harqErrorRate_4th_Ul
attr title "Harq Error Rate Ul (4th tx)"
attr unit ""
vector 291 MultiCell_Standalone.gnb1.cellularNic.mac harqErrorRate_4th_Dl:vector ETV
attr recordingmode vector
attr source harqErrorRate_4th_Dl
attr title "Harq Error Rate Dl (4th tx)"
attr unit ""
vector 292 MultiCell_Standalone.gnb1.cellularNic.mac receivedPacketFromUpperLayer:vector(packetBytes) ETV
attr interpolationmode none
attr recordingmode vector(packetBytes)
attr source receivedPacketFromUpperLayer
vector 293 MultiCell_Standalone.gnb1.cellularNic.mac receivedPacketFromLowerLayer:vector(packetBytes) ETV
attr interpolationmode none
attr recordingmode vector(packetBytes)
attr source receivedPacketFromLowerLayer
vector 294 MultiCell_Standalone.gnb1.cellularNic.mac sentPacketToUpperLayer:vector(packetBytes) ETV
attr interpolationmode none
attr recordingmode vector(packetBytes)
attr source sentPacketToUpperLayer
vector 295 MultiCell_Standalone.gnb1.cellularNic.mac sentPacketToLowerLayer:vector(packetBytes) ETV
attr interpolationmode none
attr recordingmode vector(packetBytes)
attr source sentPacketToLowerLayer
vector 296 MultiCell_Standalone.gnb1.cellularNic.mac avgServedBlocksDl:vector ETV
attr recordingmode vector
attr source avgServedBlocksDl
attr title "Average number of allocated Resource Blocks in the Dl"
attr unit blocks
vector 297 MultiCell_Standalone.gnb1.cellularNic.mac avgServedBlocksUl:vector ETV
attr recordingmode vector
attr source avgServedBlocksUl
attr title "Average number of allocated Resource Blocks in the Dl"
attr unit blocks
vector 298 MultiCell_Standalone.gnb1.cellularNic.channelModel[0] rcvdSinrDl:vector ETV
attr recordingmode vector
attr source rcvdSinrDl
attr title "SINR measured at packet reception, DL"
attr unit dB
vector 299 MultiCell_Standalone.gnb1.cellularNic.channelModel[0] rcvdSinrUl:vector ETV
attr recordingmode vector
attr source rcvdSinrUl
attr title "SINR measured at packet reception, UL"
attr unit dB
vector 300 MultiCell_Standalone.gnb1.cellularNic.channelModel[0] rcvdSinrD2D:vector ETV
attr recordingmode vector
attr source rcvdSinrD2D
attr title "SINR measured at packet reception, D2D"
attr unit dB
vector 301 MultiCell_Standalone.gnb1.cellularNic.channelModel[0] measuredSinrDl:vector ETV
attr recordingmode vector
attr source measuredSinrDl
attr title "SINR measured at feedback computation, DL"
attr unit dB
vector 302 MultiCell_Standalone.gnb1.cellularNic.channelModel[0] measuredSinrUl:vector ETV
attr recordingmode vector
attr source measuredSinrUl
attr title "SINR measured at feedback computation, UL"
attr unit dB
vector 303 MultiCell_Standalone.gnb1.cellularNic packetDropInterfaceDown:vector(packetBytes) ETV
attr interpolationmode none
attr recordingmode vector(packetBytes)
attr source packetDropReasonIsInterfaceDown(packetDropped)
attr title "packet drops: interface down, packetBytes"
vector 304 MultiCell_Standalone.gnb1.cellularNic packetDropNoCarrier:vector(packetBytes) ETV
attr interpolationmode none
attr recordingmode vector(packetBytes)
attr source packetDropReasonIsNoCarrier(packetDropped)
attr title "packet drops: no carrier, packetBytes"
vector 305 MultiCell_Standalone.gnb1.pppIf.queue queueLength:vector ETV
attr autoWarmupFilter false
attr interpolationmode sample-hold
attr recordingmode vector
attr source "warmup(atomic(constant0(packetPushEnded) + count(packetPushStarted) - count(packetPulled) - count(packetRemoved) - count(packetDropped)))"
attr title "queue length"
attr unit pk
vector 306 MultiCell_Standalone.gnb1.pppIf.queue queueBitLength:vector ETV
attr autoWarmupFilter false
attr interpolationmode sample-hold
attr recordingmode vector
attr source "warmup(atomic(constant0(packetPushEnded) + sum(packetLength(packetPushStarted)) - sum(packetLength(packetPulled)) - sum(packetLength(packetRemoved)) - sum(packetLength(packetDropped))))"
attr title "queue bit length"
attr unit b
vector 307 MultiCell_Standalone.gnb1.pppIf.queue queueingTime:vector ETV
attr interpolationmode none
attr recordingmode vector
attr source queueingTime(packetPulled)
attr title "queueing times"
attr unit s
vector 308 MultiCell_Standalone.gnb1.pppIf.queue incomingPacketLengths:vector ETV
attr interpolationmode none
attr recordingmode vector
attr source packetLength(packetPushStarted)
attr title "incoming packet lengths"
attr unit b
vector 309 MultiCell_Standalone.gnb1.pppIf.queue incomingDataRate:vector ETV
attr interpolationmode linear
attr recordingmode vector
attr source throughput(packetPushStarted)
attr title "incoming datarate"
attr unit bps
vector 310 MultiCell_Standalone.gnb1.pppIf.queue outgoingPacketLengths:vector ETV
attr interpolationmode none
attr recordingmode vector
attr source packetLength(packetPulled)
attr title "outgoing packet lengths"
attr unit b
vector 311 MultiCell_Standalone.gnb1.pppIf.queue outgoingDataRate:vector ETV
attr interpolationmode linear
attr recordingmode vector
attr source throughput(packetPulled)
attr title "outgoing datarate"
attr unit bps
vector 312 MultiCell_Standalone.gnb1.pppIf.queue droppedPacketLengthsQueueOverflow:vector ETV
attr interpolationmode none
attr recordingmode vector
attr source packetLength(packetDropReasonIsQueueOverflow(packetDropped))
attr title "dropped packet lengths: queue overflow"
attr unit b
vector 313 MultiCell_Standalone.gnb1.pppIf.queue flowQueueingTime:vector ETV
attr interpolationmode none
attr recordingmode vector
attr source queueingTime(demuxFlow(packetPulled))
attr title "flow queueing times"
attr unit s
vector 314 MultiCell_Standalone.gnb1.pppIf.queue flowIncomingDataRate:vector ETV
attr interpolationmode linear
attr recordingmode vector
attr source throughput(flowPacketLength(demuxFlow(packetPushStarted)))
attr title "flow specific incoming data rate"
attr unit bps
vector 315 MultiCell_Standalone.gnb1.pppIf.queue flowOutgoingDataRate:vector ETV
attr interpolationmode linear
[...]
vector 589 MultiCell_Standalone.ue[0].cellularNic.channelModel[0] rcvdSinrUl:vector ETV
attr recordingmode vector
attr source rcvdSinrUl
attr title "SINR measured at packet reception, UL"
attr unit dB
vector 590 MultiCell_Standalone.ue[0].cellularNic.channelModel[0] rcvdSinrD2D:vector ETV
attr recordingmode vector
attr source rcvdSinrD2D
attr title "SINR measured at packet reception, D2D"
attr unit dB
vector 591 MultiCell_Standalone.ue[0].cellularNic.channelModel[0] measuredSinrDl:vector ETV
attr recordingmode vector
attr source measuredSinrDl
attr title "SINR measured at feedback computation, DL"
attr unit dB
vector 592 MultiCell_Standalone.ue[0].cellularNic.channelModel[0] measuredSinrUl:vector ETV
attr recordingmode vector
attr source measuredSinrUl
attr title "SINR measured at feedback computation, UL"
attr unit dB
vector 593 MultiCell_Standalone.ue[0].cellularNic.nrRlc.tm rlcPacketLossUl:vector ETV
attr recordingmode vector
attr source rlcPacketLossUl
attr title "rlc Packet Loss"
attr unit ""
vector 594 MultiCell_Standalone.ue[0].cellularNic.nrRlc.tm rlcPacketLossDl:vector ETV
attr recordingmode vector
attr source rlcPacketLossDl
attr title "rlc Packet Loss"
attr unit ""
vector 595 MultiCell_Standalone.ue[0].cellularNic.nrRlc.tm receivedPacketFromUpperLayer:vector(packetBytes) ETV
attr interpolationmode none
attr recordingmode vector(packetBytes)
attr source receivedPacketFromUpperLayer
vector 596 MultiCell_Standalone.ue[0].cellularNic.nrRlc.tm receivedPacketFromLowerLayer:vector(packetBytes) ETV
attr interpolationmode none
attr recordingmode vector(packetBytes)
attr source receivedPacketFromLowerLayer
vector 597 MultiCell_Standalone.ue[0].cellularNic.nrRlc.tm sentPacketToUpperLayer:vector(packetBytes) ETV
attr interpolationmode none
attr recordingmode vector(packetBytes)
attr source sentPacketToUpperLayer
vector 598 MultiCell_Standalone.ue[0].cellularNic.nrRlc.tm sentPacketToLowerLayer:vector(packetBytes) ETV
attr interpolationmode none
attr recordingmode vector(packetBytes)
attr source sentPacketToLowerLayer
vector 599 MultiCell_Standalone.ue[0].cellularNic.nrRlc.um rlcDelayDl:vector ETV
attr recordingmode vector
attr source rlcDelayDl
attr title "Delay at the rlc layer DL"
attr unit s
vector 600 MultiCell_Standalone.ue[0].cellularNic.nrRlc.um rlcThroughputDl:vector ETV
attr recordingmode vector
attr source rlcThroughputDl
attr title "Throughput at the rlc layer DL"
attr unit Bps
vector 601 MultiCell_Standalone.ue[0].cellularNic.nrRlc.um rlcDelayUl:vector ETV
attr recordingmode vector
attr source rlcDelayUl
attr title "Delay at the rlc layer UL"
attr unit s
vector 602 MultiCell_Standalone.ue[0].cellularNic.nrRlc.um rlcThroughputUl:vector ETV
attr recordingmode vector
attr source rlcThroughputUl
attr title "Throughput at the rlc layer UL"
attr unit Bps
vector 603 MultiCell_Standalone.ue[0].cellularNic.nrRlc.um rlcPacketLossUl:vector ETV
attr recordingmode vector
attr source rlcPacketLossUl
attr title "rlc Packet Loss"
attr unit ""
vector 604 MultiCell_Standalone.ue[0].cellularNic.nrRlc.um rlcPacketLossDl:vector ETV
attr recordingmode vector
attr source rlcPacketLossDl
attr title "rlc Packet Loss"
attr unit ""
vector 605 MultiCell_Standalone.ue[0].cellularNic.nrRlc.um rlcPacketLossTotal:vector ETV
attr recordingmode vector
attr source rlcPacketLossTotal
attr title "rlc Packet Loss"
attr unit ""
vector 606 MultiCell_Standalone.ue[0].cellularNic.nrRlc.um rlcPduDelayDl:vector ETV
attr recordingmode vector
attr source rlcPduDelayDl
attr title "Delay at the rlc layer UL"
attr unit s
vector 607 MultiCell_Standalone.ue[0].cellularNic.nrRlc.um rlcPduThroughputDl:vector ETV
attr recordingmode vector
attr source rlcPduThroughputDl
attr title "Throughput at the rlc layer DL"
attr unit Bps
vector 608 MultiCell_Standalone.ue[0].cellularNic.nrRlc.um rlcPduDelayUl:vector ETV
attr recordingmode vector
attr source rlcPduDelayUl
attr title "Delay at the rlc layer UL"
attr unit s
vector 609 MultiCell_Standalone.ue[0].cellularNic.nrRlc.um rlcPduThroughputUl:vector ETV
attr recordingmode vector
attr source rlcPduThroughputUl
attr title "Throughput at the rlc layer UL"
attr unit Bps
vector 610 MultiCell_Standalone.ue[0].cellularNic.nrRlc.um rlcPduPacketLossUl:vector ETV
attr recordingmode vector
attr source rlcPduPacketLossUl
attr title "rlc Packet Loss"
attr unit ""
vector 611 MultiCell_Standalone.ue[0].cellularNic.nrRlc.um rlcPduPacketLossDl:vector ETV
attr recordingmode vector
attr source rlcPduPacketLossDl
attr title "rlc Packet Loss"
attr unit ""
vector 612 MultiCell_Standalone.ue[0].cellularNic.nrRlc.um receivedPacketFromUpperLayer:vector(packetBytes) ETV
attr interpolationmode none
attr recordingmode vector(packetBytes)
attr source receivedPacketFromUpperLayer
vector 613 MultiCell_Standalone.ue[0].cellularNic.nrRlc.um receivedPacketFromLowerLayer:vector(packetBytes) ETV
attr interpolationmode none
attr recordingmode vector(packetBytes)
attr source receivedPacketFromLowerLayer
vector 614 MultiCell_Standalone.ue[0].cellularNic.nrRlc.um sentPacketToUpperLayer:vector(packetBytes) ETV
attr interpolationmode none
attr recordingmode vector(packetBytes)
attr source sentPacketToUpperLayer
vector 615 MultiCell_Standalone.ue[0].cellularNic.nrRlc.um sentPacketToLowerLayer:vector(packetBytes) ETV
attr interpolationmode none
attr recordingmode vector(packetBytes)
attr source sentPacketToLowerLayer
vector 616 MultiCell_Standalone.ue[0].cellularNic.nrRlc.um rlcDelayD2D:vector ETV
attr recordingmode vector
attr source rlcDelayD2D
attr title "Delay at the rlc layer D2D"
attr unit s
vector 617 MultiCell_Standalone.ue[0].cellularNic.nrRlc.um rlcThroughputD2D:vector ETV
attr recordingmode vector
attr source rlcThroughputD2D
attr title "Throughput at the rlc layer D2D"
attr unit Bps
vector 618 MultiCell_Standalone.ue[0].cellularNic.nrRlc.um rlcPacketLossD2D:vector ETV
attr recordingmode vector
attr source rlcPacketLossD2D
attr title "rlc Packet Loss"
attr unit ""
vector 619 MultiCell_Standalone.ue[0].cellularNic.nrRlc.um rlcCellPacketLossD2D:vector ETV
attr recordingmode vector
attr source rlcCellPacketLossD2D
attr title "rlc Cell Packet Loss"
attr unit ""
vector 620 MultiCell_Standalone.ue[0].cellularNic.nrRlc.um rlcCellThroughputD2D:vector ETV
attr recordingmode vector
attr source rlcCellThroughputD2D
attr title "Cell Throughput at the rlc layer D2D"
attr unit Bps
vector 621 MultiCell_Standalone.ue[0].cellularNic.nrRlc.um rlcPduDelayD2D:vector ETV
attr recordingmode vector
attr source rlcPduDelayD2D
attr title "Delay at the rlc layer D2D"
attr unit s
vector 622 MultiCell_Standalone.ue[0].cellularNic.nrRlc.um rlcPduThroughputD2D:vector ETV
attr recordingmode vector
attr source rlcPduThroughputD2D
attr title "Throughput at the rlc layer D2D"
attr unit Bps
vector 623 MultiCell_Standalone.ue[0].cellularNic.nrRlc.um rlcPduPacketLossD2D:vector ETV
attr recordingmode vector
attr source rlcPduPacketLossD2D
attr title "rlc Packet Loss"
attr unit ""
vector 624 MultiCell_Standalone.ue[0].cellularNic.nrMac macDelayDl:vector ETV
attr recordingmode vector
attr source macDelayDl
attr title "Delay at the MAC layer UL"
attr unit s
vector 625 MultiCell_Standalone.ue[0].cellularNic.nrMac macDelayUl:vector ETV
attr recordingmode vector
attr source macDelayUl
attr title "Delay at the MAC layer UL"
attr unit s
vector 626 MultiCell_Standalone.ue[0].cellularNic.nrMac harqErrorRateUl:vector ETV
attr recordingmode vector
attr source harqErrorRateUl
attr title "Harq Error Rate Ul"
attr unit ""
vector 627 MultiCell_Standalone.ue[0].cellularNic.nrMac harqErrorRateDl:vector ETV
attr recordingmode vector
attr source harqErrorRateDl
attr title "Harq Error Rate Dl"
attr unit ""
vector 628 MultiCell_Standalone.ue[0].cellularNic.nrMac harqTxAttemptsDl:vector ETV
attr recordingmode vector
attr source harqTxAttemptsDl
attr title "Harq Tx Attempts Dl"
attr unit ""
vector 629 MultiCell_Standalone.ue[0].cellularNic.nrMac harqTxAttemptsUl:vector ETV
attr recordingmode vector
attr source harqTxAttemptsUl
attr title "Harq Tx Attempts Ul"
attr unit ""
vector 630 MultiCell_Standalone.ue[0].cellularNic.nrMac harqErrorRate_1st_Ul:vector ETV
attr recordingmode vector
attr source harqErrorRate_1st_Ul
attr title "Harq Error Rate Ul (1st tx)"
attr unit ""
vector 631 MultiCell_Standalone.ue[0].cellularNic.nrMac harqErrorRate_1st_Dl:vector ETV
attr recordingmode vector
attr source harqErrorRate_1st_Dl
attr title "Harq Error Rate Dl (1st tx)"
attr unit ""
vector 632 MultiCell_Standalone.ue[0].cellularNic.nrMac harqErrorRate_2nd_Ul:vector ETV
attr recordingmode vector
attr source harqErrorRate_2nd_Ul
attr title "Harq Error Rate Ul (2nd tx)"
attr unit ""
vector 633 MultiCell_Standalone.ue[0].cellularNic.nrMac harqErrorRate_2nd_Dl:vector ETV
attr recordingmode vector
attr source harqErrorRate_2nd_Dl
attr title "Harq Error Rate Dl (2nd tx)"
attr unit ""
vector 634 MultiCell_Standalone.ue[0].cellularNic.nrMac harqErrorRate_3rd_Ul:vector ETV
attr recordingmode vector
attr source harqErrorRate_3rd_Ul
attr title "Harq Error Rate Ul (3rd tx)"
attr unit ""
vector 635 MultiCell_Standalone.ue[0].cellularNic.nrMac harqErrorRate_3rd_Dl:vector ETV
attr recordingmode vector
attr source harqErrorRate_3rd_Dl
attr title "Harq Error Rate Dl (3rd tx)"
attr unit ""
vector 636 MultiCell_Standalone.ue[0].cellularNic.nrMac harqErrorRate_4th_Ul:vector ETV
attr recordingmode vector
attr source harqErrorRate_4th_Ul
attr title "Harq Error Rate Ul (4th tx)"
attr unit ""
vector 637 MultiCell_Standalone.ue[0].cellularNic.nrMac harqErrorRate_4th_Dl:vector ETV
attr recordingmode vector
attr source harqErrorRate_4th_Dl
attr title "Harq Error Rate Dl (4th tx)"
attr unit ""
vector 638 MultiCell_Standalone.ue[0].cellularNic.nrMac receivedPacketFromUpperLayer:vector(packetBytes) ETV
attr interpolationmode none
attr recordingmode vector(packetBytes)
attr source receivedPacketFromUpperLayer
vector 639 MultiCell_Standalone.ue[0].cellularNic.nrMac receivedPacketFromLowerLayer:vector(packetBytes) ETV
attr interpolationmode none
attr recordingmode vector(packetBytes)
attr source receivedPacketFromLowerLayer
vector 640 MultiCell_Standalone.ue[0].cellularNic.nrMac sentPacketToUpperLayer:vector(packetBytes) ETV
attr interpolationmode none
attr recordingmode vector(packetBytes)
attr source sentPacketToUpperLayer
vector 641 MultiCell_Standalone.ue[0].cellularNic.nrMac sentPacketToLowerLayer:vector(packetBytes) ETV
attr interpolationmode none
attr recordingmode vector(packetBytes)
attr source sentPacketToLowerLayer
vector 642 MultiCell_Standalone.ue[0].cellularNic.nrMac harqErrorRate_1st_D2D:vector ETV
attr recordingmode vector
attr source harqErrorRate_1st_D2D
attr title "Harq Error Rate D2D (1st Tx)"
attr unit ""
vector 643 MultiCell_Standalone.ue[0].cellularNic.nrMac harqErrorRate_2nd_D2D:vector ETV
attr recordingmode vector
attr source harqErrorRate_2nd_D2D
attr title "Harq Error Rate D2D (2nd Tx)"
attr unit ""
vector 644 MultiCell_Standalone.ue[0].cellularNic.nrMac harqErrorRate_3rd_D2D:vector ETV
attr recordingmode vector
attr source harqErrorRate_3rd_D2D
attr title "Harq Error Rate D2D (3rd Tx)"
attr unit ""
vector 645 MultiCell_Standalone.ue[0].cellularNic.nrMac harqErrorRate_4th_D2D:vector ETV
attr recordingmode vector
attr source harqErrorRate_4th_D2D
attr title "Harq Error Rate D2D (4th Tx)"
attr unit ""
vector 646 MultiCell_Standalone.ue[0].cellularNic.nrMac harqErrorRateD2D:vector ETV
attr recordingmode vector
attr source harqErrorRateD2D
attr title "Harq Error Rate D2D"
attr unit ""
vector 647 MultiCell_Standalone.ue[0].cellularNic.nrMac macDelayD2D:vector ETV
attr recordingmode vector
attr source macDelayD2D
attr title "Delay at the MAC layer D2D"
attr unit s
vector 648 MultiCell_Standalone.ue[0].cellularNic.nrMac rcvdD2DModeSwitchNotification:vector ETV
attr recordingmode vector
attr source rcvdD2DModeSwitchNotification
attr title "Reception of mode switch notification (tx side)"
attr unit ""
vector 649 MultiCell_Standalone.ue[0].cellularNic.nrPhy distance:vector ETV
attr recordingmode vector
attr source distance
attr title "distance between UE and serving base station"
attr unit meters
vector 650 MultiCell_Standalone.ue[0].cellularNic.nrPhy servingCell:vector ETV
attr recordingmode vector
attr source servingCell
attr title "ID of the serving cell for the UE"
attr unit ""
vector 651 MultiCell_Standalone.ue[0].cellularNic.nrPhy averageCqiDl:vector ETV
attr recordingmode vector
attr source averageCqiDl
attr title "Average Cqi reported in DL"
attr unit cqi
vector 652 MultiCell_Standalone.ue[0].cellularNic.nrPhy averageCqiUl:vector ETV
attr recordingmode vector
attr source averageCqiUl
attr title "Average Cqi reported in UL"
attr unit cqi
vector 653 MultiCell_Standalone.ue[0].cellularNic.nrPhy averageCqiD2D:vector ETV
attr recordingmode vector
attr source averageCqiD2D
attr title "Average Cqi reported in D2D"
attr unit cqi
vector 654 MultiCell_Standalone.ue[0].cellularNic.nrChannelModel[0] rcvdSinrDl:vector ETV
attr recordingmode vector
attr source rcvdSinrDl
attr title "SINR measured at packet reception, DL"
attr unit dB
vector 655 MultiCell_Standalone.ue[0].cellularNic.nrChannelModel[0] rcvdSinrUl:vector ETV
attr recordingmode vector
attr source rcvdSinrUl
attr title "SINR measured at packet reception, UL"
attr unit dB
vector 656 MultiCell_Standalone.ue[0].cellularNic.nrChannelModel[0] rcvdSinrD2D:vector ETV
attr recordingmode vector
attr source rcvdSinrD2D
attr title "SINR measured at packet reception, D2D"
attr unit dB
vector 657 MultiCell_Standalone.ue[0].cellularNic.nrChannelModel[0] measuredSinrDl:vector ETV
attr recordingmode vector
attr source measuredSinrDl
attr title "SINR measured at feedback computation, DL"
attr unit dB
vector 658 MultiCell_Standalone.ue[0].cellularNic.nrChannelModel[0] measuredSinrUl:vector ETV
attr recordingmode vector
attr source measuredSinrUl
attr title "SINR measured at feedback computation, UL"
attr unit dB
vector 659 MultiCell_Standalone.ue[0].cellularNic packetDropInterfaceDown:vector(packetBytes) ETV
attr interpolationmode none
attr recordingmode vector(packetBytes)
attr source packetDropReasonIsInterfaceDown(packetDropped)
attr title "packet drops: interface down, packetBytes"
vector 660 MultiCell_Standalone.ue[0].cellularNic packetDropNoCarrier:vector(packetBytes) ETV
attr interpolationmode none
attr recordingmode vector(packetBytes)
attr source packetDropReasonIsNoCarrier(packetDropped)
attr title "packet drops: no carrier, packetBytes"
vector 661 MultiCell_Standalone.ue[0].encap encapPk:vector(packetBytes) ETV
attr interpolationmode none
attr recordingmode vector(packetBytes)
attr source encapPk
attr title "packets encapsulated, packetBytes"
vector 662 MultiCell_Standalone.ue[0].encap decapPk:vector(packetBytes) ETV
attr interpolationmode none
attr recordingmode vector(packetBytes)
attr source decapPk
attr title "packets decapsulated, packetBytes"
vector 663 MultiCell_Standalone.ue[0].encap pauseSent:vector ETV
attr recordingmode vector
attr title "pause sent"
vector 664 MultiCell_Standalone.ue[0].ipv4.ip packetDropAddressResolutionFailed:vector(packetBytes) ETV
attr interpolationmode none
attr recordingmode vector(packetBytes)
attr source packetDropReasonIsAddressResolutionFailed(packetDropped)
attr title "packet drop: address resolution failed, packetBytes"
vector 665 MultiCell_Standalone.ue[0].ipv4.ip packetDropHopLimitReached:vector(packetBytes) ETV
attr interpolationmode none
attr recordingmode vector(packetBytes)
attr source packetDropReasonIsHopLimitReached(packetDropped)
attr title "packet drop: hop limit reached, packetBytes"
vector 666 MultiCell_Standalone.ue[0].ipv4.ip packetDropForwardingDisabled:vector(packetBytes) ETV
attr interpolationmode none
attr recordingmode vector(packetBytes)
attr source packetDropReasonIsForwardingDisabled(packetDropped)
attr title "packet drop: forwarding disabled, packetBytes"
vector 667 MultiCell_Standalone.ue[0].ipv4.ip packetDropNoInterfaceFound:vector(packetBytes) ETV
attr interpolationmode none
attr recordingmode vector(packetBytes)
attr source packetDropReasonIsNoInterfaceFound(packetDropped)
attr title "packet drop: no interface found, packetBytes"
vector 668 MultiCell_Standalone.ue[0].ipv4.ip packetDropNoRouteFound:vector(packetBytes) ETV
attr interpolationmode none
attr recordingmode vector(packetBytes)
attr source packetDropReasonIsNoRouteFound(packetDropped)
attr title "packet drop: no route found, packetBytes"
vector 669 MultiCell_Standalone.ue[0].ipv4.ip packetDropUndefined:vector(packetBytes) ETV
attr interpolationmode none
attr recordingmode vector(packetBytes)
attr source packetDropReasonIsUndefined(packetDropped)
attr title "packet drop: undefined, packetBytes"
vector 670 MultiCell_Standalone.ue[0].ipv4.arp arpRequestSent:vector(packetBytes) ETV
attr recordingmode vector(packetBytes)
attr source arpRequestSent
attr title "ARP request sent, packetBytes"
vector 671 MultiCell_Standalone.ue[0].ipv4.arp arpReplySent:vector(packetBytes) ETV
attr recordingmode vector(packetBytes)
attr source arpReplySent
attr title "ARP replies sent, packetBytes"
vector 672 MultiCell_Standalone.ue[0].udp packetSent:vector(packetBytes) ETV
attr interpolationmode none
attr recordingmode vector(packetBytes)
attr source packetSent
attr title "packets sent, packetBytes"
vector 673 MultiCell_Standalone.ue[0].udp packetReceived:vector(packetBytes) ETV
attr interpolationmode none
attr recordingmode vector(packetBytes)
attr source packetReceived
attr title "packets received, packetBytes"
vector 674 MultiCell_Standalone.ue[0].udp passedUpPk:vector(count) ETV
attr interpolationmode none
attr recordingmode vector(count)
attr source packetSentToUpper
attr title "packets passed up, count"
vector 675 MultiCell_Standalone.ue[0].udp droppedPkWrongPort:vector(count) ETV
attr interpolationmode none
attr recordingmode vector(count)
attr source packetDropReasonIsNoPortFound(packetDropped)
attr title "packets dropped (wrong port), count"
vector 676 MultiCell_Standalone.ue[0].udp droppedPkBadChecksum:vector(count) ETV
attr interpolationmode none
attr recordingmode vector(count)
attr source packetDropReasonIsIncorrectlyReceived(packetDropped)
attr title "packets dropped (checksum error), count"
4	0	0	0
4	0	0	0
4	0	0	0
4	0	0	0
4	0	0	0
5	0	0	0
5	0	0	0
5	0	0	0
5	0	0	0
5	0	0	0
15	0	0	0
34	0	0	0
35	0	0	0
36	0	0	0
41	0	0	0
41	0	0	0
41	0	0	0
41	0	0	0
41	0	0	0
42	0	0	0
42	0	0	0
42	0	0	0
42	0	0	0
42	0	0	0
52	0	0	0
61	0	0	0
61	0	0	0
61	0	0	0
61	0	0	0
61	0	0	0
62	0	0	0
62	0	0	0
62	0	0	0
62	0	0	0
62	0	0	0
72	0	0	0
93	0	0	0
93	0	0	0
93	0	0	0
93	0	0	0
93	0	0	0
94	0	0	0
94	0	0	0
94	0	0	0
94	0	0	0
94	0	0	0
104	0	0	0
121	0	0	0
121	0	0	0
121	0	0	0
121	0	0	0
121	0	0	0
122	0	0	0
122	0	0	0
122	0	0	0
122	0	0	0
122	0	0	0
132	0	0	0
143	0	0	0
144	0	0	0
145	0	0	0
150	0	0	0
150	0	0	0
150	0	0	0
150	0	0	0
150	0	0	0
151	0	0	0
151	0	0	0
151	0	0	0
151	0	0	0
151	0	0	0
161	0	0	0
170	0	0	0
170	0	0	0
170	0	0	0
170	0	0	0
170	0	0	0
171	0	0	0
171	0	0	0
171	0	0	0
171	0	0	0
171	0	0	0
181	0	0	0
190	0	0	0
190	0	0	0
190	0	0	0
190	0	0	0
190	0	0	0
191	0	0	0
191	0	0	0
191	0	0	0
191	0	0	0
191	0	0	0
201	0	0	0
218	0	0	0
218	0	0	0
218	0	0	0
218	0	0	0
218	0	0	0
219	0	0	0
219	0	0	0
219	0	0	0
219	0	0	0
219	0	0	0
229	0	0	0
240	0	0	0
241	0	0	0
242	0	0	0
305	0	0	0
305	0	0	0
305	0	0	0
305	0	0	0
305	0	0	0
306	0	0	0
306	0	0	0
306	0	0	0
306	0	0	0
306	0	0	0
316	0	0	0
325	0	0	0
325	0	0	0
325	0	0	0
325	0	0	0
325	0	0	0
326	0	0	0
326	0	0	0
326	0	0	0
326	0	0	0
326	0	0	0
336	0	0	0
345	0	0	0
345	0	0	0
345	0	0	0
345	0	0	0
345	0	0	0
346	0	0	0
346	0	0	0
346	0	0	0
346	0	0	0
346	0	0	0
356	0	0	0
375	0	0	0
376	0	0	0
377	0	0	0
443	0	0	0
443	0	0	0
443	0	0	0
443	0	0	0
443	0	0	0
444	0	0	0
444	0	0	0
444	0	0	0
444	0	0	0
444	0	0	0
454	0	0	0
463	0	0	0
463	0	0	0
463	0	0	0
463	0	0	0
463	0	0	0
464	0	0	0
464	0	0	0
464	0	0	0
464	0	0	0
464	0	0	0
474	0	0	0
483	0	0	0
483	0	0	0
483	0	0	0
483	0	0	0
483	0	0	0
484	0	0	0
484	0	0	0
484	0	0	0
484	0	0	0
484	0	0	0
494	0	0	0
513	0	0	0
514	0	0	0
515	0	0	0
584	0	0	0
584	0	0	0
650	0	0	0
650	0	0	1
674	0	0	0
675	0	0	0
676	0	0	0

