version 3
run General-0-20250703-15:33:45-9990
attr configname General
attr datetime 20250703-15:33:45
attr datetimef 20250703-153345
attr experiment General
attr inifile omnetpp.ini
attr iterationvars ""
attr iterationvarsd ""
attr iterationvarsf ""
attr measurement ""
attr network Hybrid5GSatNetwork
attr processid 9990
attr repetition 0
attr replication #0
attr resultdir results
attr runnumber 0
attr seedset 0
config image-path ../../images:../../../inet4.5/images
config network Hybrid5GSatNetwork
config description "Ground–air–space test bed with mixed 5 G and classic INET nodes"
config sim-time-limit 120s
config seed-set 0
config **.scalar-recording true
config **.vector-recording true
config **.mobility.constraintAreaMaxX 1000m
config **.mobility.constraintAreaMaxY 750m
config **.mobility.constraintAreaMinX 0m
config **.mobility.constraintAreaMinY 250m
config **.mobility.constraintAreaMinZ 0m
config **.mobility.constraintAreaMaxZ 20000m
config **.mobility.initFromDisplayString false
config *.configurator.addDefaultRoutes true
config *.configurator.addStaticRoutes false
config *.router[*].hasOspfRouting true
config *.aircraft[*].hasOspfRouting true
config *.sat[*].hasOspfRouting true
config *.ue[*].mobility.typename LinearMobility
config *.ue[*].mobility.initialX uniform(0m,1000m)
config *.ue[*].mobility.initialY uniform(250m,750m)
config *.ue[*].mobility.speed uniform(3mps,15mps)
config *.aircraft[*].mobility.typename LinearMobility
config *.aircraft[*].mobility.initialZ 10000m
config *.aircraft[*].mobility.speed 250mps
config *.sat[*].mobility.typename StationaryMobility
config *.gnb[*].carrierAggregation.numComponentCarriers 1
config *.gnb[*].cellularNic.numCarriers 1
config *.gnb1.mobility.initialX 250m
config *.gnb1.mobility.initialY 500m
config *.gnb2.mobility.initialX 800m
config *.gnb2.mobility.initialY 500m
config *.core.upf.numSgiIfaces 2
config *.ue[*].macCellId 0
config *.ue[*].masterId 0
config *.ue[*].nrMacCellId 1
config *.ue[*].nrMasterId 1
config **.dynamicCellAssociation true
config **.enableHandover true
config *.iot[*].numApps 1
config *.iot[*].app[0].typename UdpBasicApp
config *.iot[*].app[0].messageLength 32B
config *.iot[*].app[0].sendInterval uniform(0.5s,1.5s)
config *.iot[*].app[0].destPort 5000
config *.iot[*].app[0].chooseDestAddr "\"random\""
config *.host[*].numApps 1
config *.host[*].app[0].typename UdpBasicApp
config *.host[*].app[0].messageLength 100B
config *.host[*].app[0].sendInterval exponential(2s)
config *.host[*].app[0].destAddresses "\"iot[0..99]\""
config *.host[*].app[*].localPort 3088+ancestorIndex(0)
config *.host[*].app[*].destPort "3000 + ancestorIndex(1)"
config *.host[*].app[0].startTime uniform(1s,2s)
config *.host[*].app[0].stopTime 120s
config *.ue[*].numApps 1
config *.ue[*].app[*].localPort 3000
config *.ue[*].app[0].typename UdpBasicApp
config *.ue[*].app[0].messageLength 100B
config *.ue[*].app[0].sendInterval exponential(2s)
config *.ue[*].app[0].destAddresses "\"iot[0..99] host[0..9]\""
config *.ue[*].app[*].destPort "3000 + ancestorIndex(1)"
config *.ue[*].app[0].startTime uniform(1s,3s)
config *.aircraft[*].numApps 1
config *.aircraft[*].app[0].typename UdpSink
config *.aircraft[*].app[0].localPort 6000
config **.udp*.endToEndDelay.vector-recording true
config **.udp*.packetLossRate.vector-recording true
config **.udp*.throughput.vector-recording true
config output-vector-file result/vectors.vec
config output-scalar-file result/scalars.sca
config **.scalar-recording true
config **.vector-recording true
config *.router[*].numPcapRecorders 2
config *.router[*].pcapRecorder[0].moduleNamePatterns "\"ppp[*]\""
config *.router[*].pcapRecorder[1].moduleNamePatterns "\"eth[*]\""
config *.router[*].pcapRecorder[0].pcapFile "\"result/backbone.ppp.pcap\""
config *.router[*].pcapRecorder[1].pcapFile "\"result/backbone.eth.pcap\""
config *.gnb*.cellularNic.numPcapRecorders 1
config *.gnb*.cellularNic.pcapRecorder.typename PcapRecorder
config *.gnb*.cellularNic.pcapRecorder[*].pcapFile "\"result/5g.pcap\""
config *.sat[*].numPcapRecorders 1
config *.sat[*].pcapRecorder[*].moduleNamePatterns "\"ppp[*]\""
config *.sat[*].pcapRecorder[*].pcapFile "\"result/sat.pcap\""
config *.aircraft[*].numPcapRecorders 1
config *.aircraft[*].pcapRecorder[*].moduleNamePatterns "\"ppp[*]\""
config *.aircraft[*].pcapRecorder[*].pcapFile "\"result/air.pcap\""
config **.pcapRecorder[*].alwaysFlush true

vector 0 Hybrid5GSatNetwork.upf.lo[0].lo rcvdPkFromHl:vector(packetBytes) ETV
attr interpolationmode none
attr recordingmode vector(packetBytes)
attr source packetReceivedFromUpper
attr title "packets received from higher layer, packetBytes"
vector 1 Hybrid5GSatNetwork.upf.lo[0].lo passedUpPk:vector(packetBytes) ETV
attr interpolationmode none
attr recordingmode vector(packetBytes)
attr source packetSentToUpper
attr title "packets passed to higher layer, packetBytes"
vector 2 Hybrid5GSatNetwork.upf.lo[0] packetDropInterfaceDown:vector(packetBytes) ETV
attr interpolationmode none
attr recordingmode vector(packetBytes)
attr source packetDropReasonIsInterfaceDown(packetDropped)
attr title "packet drops: interface down, packetBytes"
vector 3 Hybrid5GSatNetwork.upf.lo[0] packetDropNoCarrier:vector(packetBytes) ETV
attr interpolationmode none
attr recordingmode vector(packetBytes)
attr source packetDropReasonIsNoCarrier(packetDropped)
attr title "packet drops: no carrier, packetBytes"
vector 4 Hybrid5GSatNetwork.upf.ppp[0].queue queueLength:vector ETV
attr autoWarmupFilter false
attr interpolationmode sample-hold
attr recordingmode vector
attr source "warmup(atomic(constant0(packetPushEnded) + count(packetPushStarted) - count(packetPulled) - count(packetRemoved) - count(packetDropped)))"
attr title "queue length"
attr unit pk
vector 5 Hybrid5GSatNetwork.upf.ppp[0].queue queueBitLength:vector ETV
attr autoWarmupFilter false
attr interpolationmode sample-hold
attr recordingmode vector
attr source "warmup(atomic(constant0(packetPushEnded) + sum(packetLength(packetPushStarted)) - sum(packetLength(packetPulled)) - sum(packetLength(packetRemoved)) - sum(packetLength(packetDropped))))"
attr title "queue bit length"
attr unit b
vector 6 Hybrid5GSatNetwork.upf.ppp[0].queue queueingTime:vector ETV
attr interpolationmode none
attr recordingmode vector
attr source queueingTime(packetPulled)
attr title "queueing times"
attr unit s
vector 7 Hybrid5GSatNetwork.upf.ppp[0].queue incomingPacketLengths:vector ETV
attr interpolationmode none
attr recordingmode vector
attr source packetLength(packetPushStarted)
attr title "incoming packet lengths"
attr unit b
vector 8 Hybrid5GSatNetwork.upf.ppp[0].queue incomingDataRate:vector ETV
attr interpolationmode linear
attr recordingmode vector
attr source throughput(packetPushStarted)
attr title "incoming datarate"
attr unit bps
vector 9 Hybrid5GSatNetwork.upf.ppp[0].queue outgoingPacketLengths:vector ETV
attr interpolationmode none
attr recordingmode vector
attr source packetLength(packetPulled)
attr title "outgoing packet lengths"
attr unit b
vector 10 Hybrid5GSatNetwork.upf.ppp[0].queue outgoingDataRate:vector ETV
attr interpolationmode linear
attr recordingmode vector
attr source throughput(packetPulled)
attr title "outgoing datarate"
attr unit bps
vector 11 Hybrid5GSatNetwork.upf.ppp[0].queue droppedPacketLengthsQueueOverflow:vector ETV
attr interpolationmode none
attr recordingmode vector
attr source packetLength(packetDropReasonIsQueueOverflow(packetDropped))
attr title "dropped packet lengths: queue overflow"
attr unit b
vector 12 Hybrid5GSatNetwork.upf.ppp[0].queue flowQueueingTime:vector ETV
attr interpolationmode none
attr recordingmode vector
attr source queueingTime(demuxFlow(packetPulled))
attr title "flow queueing times"
attr unit s
vector 13 Hybrid5GSatNetwork.upf.ppp[0].queue flowIncomingDataRate:vector ETV
attr interpolationmode linear
attr recordingmode vector
attr source throughput(flowPacketLength(demuxFlow(packetPushStarted)))
attr title "flow specific incoming data rate"
attr unit bps
vector 14 Hybrid5GSatNetwork.upf.ppp[0].queue flowOutgoingDataRate:vector ETV
attr interpolationmode linear
attr recordingmode vector
attr source throughput(flowPacketLength(demuxFlow(packetPulled)))
attr title "flow specific outgoing data rate"
attr unit bps
vector 15 Hybrid5GSatNetwork.upf.ppp[0].ppp transmissionState:vector ETV
attr interpolationmode sample-hold
attr recordingmode vector
attr source transmissionStateChanged
attr title "tx state"
vector 16 Hybrid5GSatNetwork.upf.ppp[0].ppp txPk:vector(packetBytes) ETV
attr interpolationmode none
attr recordingmode vector(packetBytes)
attr source packetSentToLower
attr title "packets transmitted, packetBytes"
vector 17 Hybrid5GSatNetwork.upf.ppp[0].ppp rxPkOk:vector(packetBytes) ETV
attr interpolationmode none
attr recordingmode vector(packetBytes)
attr source rxPkOk
attr title "packets received OK, packetBytes"
vector 18 Hybrid5GSatNetwork.upf.ppp[0].ppp packetDropIncorrectlyReceived:vector(packetBytes) ETV
attr interpolationmode none
attr recordingmode vector(packetBytes)
attr source packetDropReasonIsIncorrectlyReceived(packetDropped)
attr title "packet drop: incorrectly received, packetBytes"
vector 19 Hybrid5GSatNetwork.upf.ppp[0].ppp packetDropInterfaceDown:vector(packetBytes) ETV
attr interpolationmode none
attr recordingmode vector(packetBytes)
attr source packetDropReasonIsInterfaceDown(packetDropped)
attr title "packet drop: interface down, packetBytes"
vector 20 Hybrid5GSatNetwork.upf.ppp[0].ppp rcvdPkFromHl:vector(packetBytes) ETV
attr interpolationmode none
attr recordingmode vector(packetBytes)
attr source packetReceivedFromUpper
attr title "packets received from higher layer, packetBytes"
vector 21 Hybrid5GSatNetwork.upf.ppp[0].ppp passedUpPk:vector(packetBytes) ETV
attr interpolationmode none
attr recordingmode vector(packetBytes)
attr source packetSentToUpper
attr title "packets passed to higher layer, packetBytes"
vector 22 Hybrid5GSatNetwork.upf.ppp[0] packetDropInterfaceDown:vector(packetBytes) ETV
attr interpolationmode none
attr recordingmode vector(packetBytes)
attr source packetDropReasonIsInterfaceDown(packetDropped)
attr title "packet drops: interface down, packetBytes"
vector 23 Hybrid5GSatNetwork.upf.ppp[0] packetDropNoCarrier:vector(packetBytes) ETV
attr interpolationmode none
attr recordingmode vector(packetBytes)
attr source packetDropReasonIsNoCarrier(packetDropped)
attr title "packet drops: no carrier, packetBytes"
vector 24 Hybrid5GSatNetwork.upf.ipv4.ip packetDropAddressResolutionFailed:vector(packetBytes) ETV
attr interpolationmode none
attr recordingmode vector(packetBytes)
attr source packetDropReasonIsAddressResolutionFailed(packetDropped)
attr title "packet drop: address resolution failed, packetBytes"
vector 25 Hybrid5GSatNetwork.upf.ipv4.ip packetDropHopLimitReached:vector(packetBytes) ETV
attr interpolationmode none
attr recordingmode vector(packetBytes)
attr source packetDropReasonIsHopLimitReached(packetDropped)
attr title "packet drop: hop limit reached, packetBytes"
vector 26 Hybrid5GSatNetwork.upf.ipv4.ip packetDropForwardingDisabled:vector(packetBytes) ETV
attr interpolationmode none
attr recordingmode vector(packetBytes)
attr source packetDropReasonIsForwardingDisabled(packetDropped)
attr title "packet drop: forwarding disabled, packetBytes"
vector 27 Hybrid5GSatNetwork.upf.ipv4.ip packetDropNoInterfaceFound:vector(packetBytes) ETV
attr interpolationmode none
attr recordingmode vector(packetBytes)
attr source packetDropReasonIsNoInterfaceFound(packetDropped)
attr title "packet drop: no interface found, packetBytes"
vector 28 Hybrid5GSatNetwork.upf.ipv4.ip packetDropNoRouteFound:vector(packetBytes) ETV
attr interpolationmode none
attr recordingmode vector(packetBytes)
attr source packetDropReasonIsNoRouteFound(packetDropped)
attr title "packet drop: no route found, packetBytes"
vector 29 Hybrid5GSatNetwork.upf.ipv4.ip packetDropUndefined:vector(packetBytes) ETV
attr interpolationmode none
attr recordingmode vector(packetBytes)
attr source packetDropReasonIsUndefined(packetDropped)
attr title "packet drop: undefined, packetBytes"
vector 30 Hybrid5GSatNetwork.upf.ipv4.arp arpRequestSent:vector(packetBytes) ETV
attr recordingmode vector(packetBytes)
attr source arpRequestSent
attr title "ARP request sent, packetBytes"
vector 31 Hybrid5GSatNetwork.upf.ipv4.arp arpReplySent:vector(packetBytes) ETV
attr recordingmode vector(packetBytes)
attr source arpReplySent
attr title "ARP replies sent, packetBytes"
vector 32 Hybrid5GSatNetwork.upf.pppIf.queue queueLength:vector ETV
attr autoWarmupFilter false
attr interpolationmode sample-hold
attr recordingmode vector
attr source "warmup(atomic(constant0(packetPushEnded) + count(packetPushStarted) - count(packetPulled) - count(packetRemoved) - count(packetDropped)))"
attr title "queue length"
attr unit pk
vector 33 Hybrid5GSatNetwork.upf.pppIf.queue queueBitLength:vector ETV
attr autoWarmupFilter false
attr interpolationmode sample-hold
attr recordingmode vector
attr source "warmup(atomic(constant0(packetPushEnded) + sum(packetLength(packetPushStarted)) - sum(packetLength(packetPulled)) - sum(packetLength(packetRemoved)) - sum(packetLength(packetDropped))))"
attr title "queue bit length"
attr unit b
vector 34 Hybrid5GSatNetwork.upf.pppIf.queue queueingTime:vector ETV
attr interpolationmode none
attr recordingmode vector
attr source queueingTime(packetPulled)
attr title "queueing times"
attr unit s
vector 35 Hybrid5GSatNetwork.upf.pppIf.queue incomingPacketLengths:vector ETV
attr interpolationmode none
attr recordingmode vector
attr source packetLength(packetPushStarted)
attr title "incoming packet lengths"
attr unit b
vector 36 Hybrid5GSatNetwork.upf.pppIf.queue incomingDataRate:vector ETV
attr interpolationmode linear
attr recordingmode vector
attr source throughput(packetPushStarted)
attr title "incoming datarate"
attr unit bps
vector 37 Hybrid5GSatNetwork.upf.pppIf.queue outgoingPacketLengths:vector ETV
attr interpolationmode none
attr recordingmode vector
attr source packetLength(packetPulled)
attr title "outgoing packet lengths"
attr unit b
vector 38 Hybrid5GSatNetwork.upf.pppIf.queue outgoingDataRate:vector ETV
attr interpolationmode linear
attr recordingmode vector
attr source throughput(packetPulled)
attr title "outgoing datarate"
attr unit bps
vector 39 Hybrid5GSatNetwork.upf.pppIf.queue droppedPacketLengthsQueueOverflow:vector ETV
attr interpolationmode none
attr recordingmode vector
attr source packetLength(packetDropReasonIsQueueOverflow(packetDropped))
attr title "dropped packet lengths: queue overflow"
attr unit b
vector 40 Hybrid5GSatNetwork.upf.pppIf.queue flowQueueingTime:vector ETV
attr interpolationmode none
attr recordingmode vector
attr source queueingTime(demuxFlow(packetPulled))
attr title "flow queueing times"
attr unit s
vector 41 Hybrid5GSatNetwork.upf.pppIf.queue flowIncomingDataRate:vector ETV
attr interpolationmode linear
attr recordingmode vector
attr source throughput(flowPacketLength(demuxFlow(packetPushStarted)))
attr title "flow specific incoming data rate"
attr unit bps
vector 42 Hybrid5GSatNetwork.upf.pppIf.queue flowOutgoingDataRate:vector ETV
attr interpolationmode linear
attr recordingmode vector
attr source throughput(flowPacketLength(demuxFlow(packetPulled)))
attr title "flow specific outgoing data rate"
attr unit bps
vector 43 Hybrid5GSatNetwork.upf.pppIf.ppp transmissionState:vector ETV
attr interpolationmode sample-hold
attr recordingmode vector
attr source transmissionStateChanged
attr title "tx state"
vector 44 Hybrid5GSatNetwork.upf.pppIf.ppp txPk:vector(packetBytes) ETV
attr interpolationmode none
attr recordingmode vector(packetBytes)
attr source packetSentToLower
attr title "packets transmitted, packetBytes"
vector 45 Hybrid5GSatNetwork.upf.pppIf.ppp rxPkOk:vector(packetBytes) ETV
attr interpolationmode none
attr recordingmode vector(packetBytes)
attr source rxPkOk
attr title "packets received OK, packetBytes"
vector 46 Hybrid5GSatNetwork.upf.pppIf.ppp packetDropIncorrectlyReceived:vector(packetBytes) ETV
attr interpolationmode none
attr recordingmode vector(packetBytes)
attr source packetDropReasonIsIncorrectlyReceived(packetDropped)
attr title "packet drop: incorrectly received, packetBytes"
vector 47 Hybrid5GSatNetwork.upf.pppIf.ppp packetDropInterfaceDown:vector(packetBytes) ETV
attr interpolationmode none
attr recordingmode vector(packetBytes)
attr source packetDropReasonIsInterfaceDown(packetDropped)
attr title "packet drop: interface down, packetBytes"
vector 48 Hybrid5GSatNetwork.upf.pppIf.ppp rcvdPkFromHl:vector(packetBytes) ETV
attr interpolationmode none
attr recordingmode vector(packetBytes)
attr source packetReceivedFromUpper
attr title "packets received from higher layer, packetBytes"
vector 49 Hybrid5GSatNetwork.upf.pppIf.ppp passedUpPk:vector(packetBytes) ETV
attr interpolationmode none
attr recordingmode vector(packetBytes)
attr source packetSentToUpper
attr title "packets passed to higher layer, packetBytes"
vector 50 Hybrid5GSatNetwork.upf.pppIf packetDropInterfaceDown:vector(packetBytes) ETV
attr interpolationmode none
attr recordingmode vector(packetBytes)
attr source packetDropReasonIsInterfaceDown(packetDropped)
attr title "packet drops: interface down, packetBytes"
vector 51 Hybrid5GSatNetwork.upf.pppIf packetDropNoCarrier:vector(packetBytes) ETV
attr interpolationmode none
attr recordingmode vector(packetBytes)
attr source packetDropReasonIsNoCarrier(packetDropped)
attr title "packet drops: no carrier, packetBytes"
vector 52 Hybrid5GSatNetwork.upf.udp packetSent:vector(packetBytes) ETV
attr interpolationmode none
attr recordingmode vector(packetBytes)
attr source packetSent
attr title "packets sent, packetBytes"
vector 53 Hybrid5GSatNetwork.upf.udp packetReceived:vector(packetBytes) ETV
attr interpolationmode none
attr recordingmode vector(packetBytes)
attr source packetReceived
attr title "packets received, packetBytes"
vector 54 Hybrid5GSatNetwork.upf.udp passedUpPk:vector(count) ETV
attr interpolationmode none
attr recordingmode vector(count)
attr source packetSentToUpper
attr title "packets passed up, count"
vector 55 Hybrid5GSatNetwork.upf.udp droppedPkWrongPort:vector(count) ETV
attr interpolationmode none
attr recordingmode vector(count)
attr source packetDropReasonIsNoPortFound(packetDropped)
attr title "packets dropped (wrong port), count"
vector 56 Hybrid5GSatNetwork.upf.udp droppedPkBadChecksum:vector(count) ETV
attr interpolationmode none
attr recordingmode vector(count)
attr source packetDropReasonIsIncorrectlyReceived(packetDropped)
attr title "packets dropped (checksum error), count"
vector 57 Hybrid5GSatNetwork.iupf.lo[0].lo rcvdPkFromHl:vector(packetBytes) ETV
attr interpolationmode none
attr recordingmode vector(packetBytes)
attr source packetReceivedFromUpper
attr title "packets received from higher layer, packetBytes"
vector 58 Hybrid5GSatNetwork.iupf.lo[0].lo passedUpPk:vector(packetBytes) ETV
attr interpolationmode none
attr recordingmode vector(packetBytes)
attr source packetSentToUpper
attr title "packets passed to higher layer, packetBytes"
vector 59 Hybrid5GSatNetwork.iupf.lo[0] packetDropInterfaceDown:vector(packetBytes) ETV
attr interpolationmode none
attr recordingmode vector(packetBytes)
attr source packetDropReasonIsInterfaceDown(packetDropped)
attr title "packet drops: interface down, packetBytes"
vector 60 Hybrid5GSatNetwork.iupf.lo[0] packetDropNoCarrier:vector(packetBytes) ETV
attr interpolationmode none
attr recordingmode vector(packetBytes)
attr source packetDropReasonIsNoCarrier(packetDropped)
attr title "packet drops: no carrier, packetBytes"
vector 61 Hybrid5GSatNetwork.iupf.ppp[0].queue queueLength:vector ETV
attr autoWarmupFilter false
attr interpolationmode sample-hold
attr recordingmode vector
attr source "warmup(atomic(constant0(packetPushEnded) + count(packetPushStarted) - count(packetPulled) - count(packetRemoved) - count(packetDropped)))"
attr title "queue length"
attr unit pk
vector 62 Hybrid5GSatNetwork.iupf.ppp[0].queue queueBitLength:vector ETV
attr autoWarmupFilter false
attr interpolationmode sample-hold
attr recordingmode vector
attr source "warmup(atomic(constant0(packetPushEnded) + sum(packetLength(packetPushStarted)) - sum(packetLength(packetPulled)) - sum(packetLength(packetRemoved)) - sum(packetLength(packetDropped))))"
attr title "queue bit length"
attr unit b
vector 63 Hybrid5GSatNetwork.iupf.ppp[0].queue queueingTime:vector ETV
attr interpolationmode none
attr recordingmode vector
attr source queueingTime(packetPulled)
attr title "queueing times"
attr unit s
vector 64 Hybrid5GSatNetwork.iupf.ppp[0].queue incomingPacketLengths:vector ETV
attr interpolationmode none
attr recordingmode vector
attr source packetLength(packetPushStarted)
attr title "incoming packet lengths"
attr unit b
vector 65 Hybrid5GSatNetwork.iupf.ppp[0].queue incomingDataRate:vector ETV
attr interpolationmode linear
attr recordingmode vector
attr source throughput(packetPushStarted)
attr title "incoming datarate"
attr unit bps
vector 66 Hybrid5GSatNetwork.iupf.ppp[0].queue outgoingPacketLengths:vector ETV
attr interpolationmode none
attr recordingmode vector
attr source packetLength(packetPulled)
attr title "outgoing packet lengths"
attr unit b
vector 67 Hybrid5GSatNetwork.iupf.ppp[0].queue outgoingDataRate:vector ETV
attr interpolationmode linear
attr recordingmode vector
attr source throughput(packetPulled)
attr title "outgoing datarate"
attr unit bps
vector 68 Hybrid5GSatNetwork.iupf.ppp[0].queue droppedPacketLengthsQueueOverflow:vector ETV
attr interpolationmode none
attr recordingmode vector
attr source packetLength(packetDropReasonIsQueueOverflow(packetDropped))
attr title "dropped packet lengths: queue overflow"
attr unit b
vector 69 Hybrid5GSatNetwork.iupf.ppp[0].queue flowQueueingTime:vector ETV
attr interpolationmode none
attr recordingmode vector
attr source queueingTime(demuxFlow(packetPulled))
attr title "flow queueing times"
attr unit s
vector 70 Hybrid5GSatNetwork.iupf.ppp[0].queue flowIncomingDataRate:vector ETV
attr interpolationmode linear
attr recordingmode vector
attr source throughput(flowPacketLength(demuxFlow(packetPushStarted)))
attr title "flow specific incoming data rate"
attr unit bps
vector 71 Hybrid5GSatNetwork.iupf.ppp[0].queue flowOutgoingDataRate:vector ETV
attr interpolationmode linear
attr recordingmode vector
attr source throughput(flowPacketLength(demuxFlow(packetPulled)))
attr title "flow specific outgoing data rate"
attr unit bps
vector 72 Hybrid5GSatNetwork.iupf.ppp[0].ppp transmissionState:vector ETV
attr interpolationmode sample-hold
attr recordingmode vector
attr source transmissionStateChanged
attr title "tx state"
vector 73 Hybrid5GSatNetwork.iupf.ppp[0].ppp txPk:vector(packetBytes) ETV
attr interpolationmode none
attr recordingmode vector(packetBytes)
attr source packetSentToLower
attr title "packets transmitted, packetBytes"
vector 74 Hybrid5GSatNetwork.iupf.ppp[0].ppp rxPkOk:vector(packetBytes) ETV
attr interpolationmode none
attr recordingmode vector(packetBytes)
attr source rxPkOk
attr title "packets received OK, packetBytes"
vector 75 Hybrid5GSatNetwork.iupf.ppp[0].ppp packetDropIncorrectlyReceived:vector(packetBytes) ETV
attr interpolationmode none
attr recordingmode vector(packetBytes)
attr source packetDropReasonIsIncorrectlyReceived(packetDropped)
attr title "packet drop: incorrectly received, packetBytes"
vector 76 Hybrid5GSatNetwork.iupf.ppp[0].ppp packetDropInterfaceDown:vector(packetBytes) ETV
attr interpolationmode none
attr recordingmode vector(packetBytes)
attr source packetDropReasonIsInterfaceDown(packetDropped)
attr title "packet drop: interface down, packetBytes"
vector 77 Hybrid5GSatNetwork.iupf.ppp[0].ppp rcvdPkFromHl:vector(packetBytes) ETV
attr interpolationmode none
attr recordingmode vector(packetBytes)
attr source packetReceivedFromUpper
attr title "packets received from higher layer, packetBytes"
vector 78 Hybrid5GSatNetwork.iupf.ppp[0].ppp passedUpPk:vector(packetBytes) ETV
attr interpolationmode none
attr recordingmode vector(packetBytes)
attr source packetSentToUpper
attr title "packets passed to higher layer, packetBytes"
vector 79 Hybrid5GSatNetwork.iupf.ppp[0] packetDropInterfaceDown:vector(packetBytes) ETV
attr interpolationmode none
attr recordingmode vector(packetBytes)
attr source packetDropReasonIsInterfaceDown(packetDropped)
attr title "packet drops: interface down, packetBytes"
vector 80 Hybrid5GSatNetwork.iupf.ppp[0] packetDropNoCarrier:vector(packetBytes) ETV
attr interpolationmode none
attr recordingmode vector(packetBytes)
attr source packetDropReasonIsNoCarrier(packetDropped)
attr title "packet drops: no carrier, packetBytes"
vector 81 Hybrid5GSatNetwork.iupf.ppp[1].queue queueLength:vector ETV
attr autoWarmupFilter false
attr interpolationmode sample-hold
attr recordingmode vector
attr source "warmup(atomic(constant0(packetPushEnded) + count(packetPushStarted) - count(packetPulled) - count(packetRemoved) - count(packetDropped)))"
attr title "queue length"
attr unit pk
vector 82 Hybrid5GSatNetwork.iupf.ppp[1].queue queueBitLength:vector ETV
attr autoWarmupFilter false
attr interpolationmode sample-hold
attr recordingmode vector
attr source "warmup(atomic(constant0(packetPushEnded) + sum(packetLength(packetPushStarted)) - sum(packetLength(packetPulled)) - sum(packetLength(packetRemoved)) - sum(packetLength(packetDropped))))"
attr title "queue bit length"
attr unit b
vector 83 Hybrid5GSatNetwork.iupf.ppp[1].queue queueingTime:vector ETV
attr interpolationmode none
attr recordingmode vector
attr source queueingTime(packetPulled)
attr title "queueing times"
attr unit s
vector 84 Hybrid5GSatNetwork.iupf.ppp[1].queue incomingPacketLengths:vector ETV
attr interpolationmode none
attr recordingmode vector
attr source packetLength(packetPushStarted)
attr title "incoming packet lengths"
attr unit b
vector 85 Hybrid5GSatNetwork.iupf.ppp[1].queue incomingDataRate:vector ETV
attr interpolationmode linear
attr recordingmode vector
attr source throughput(packetPushStarted)
attr title "incoming datarate"
attr unit bps
vector 86 Hybrid5GSatNetwork.iupf.ppp[1].queue outgoingPacketLengths:vector ETV
attr interpolationmode none
attr recordingmode vector
attr source packetLength(packetPulled)
attr title "outgoing packet lengths"
attr unit b
vector 87 Hybrid5GSatNetwork.iupf.ppp[1].queue outgoingDataRate:vector ETV
attr interpolationmode linear
attr recordingmode vector
attr source throughput(packetPulled)
attr title "outgoing datarate"
attr unit bps
vector 88 Hybrid5GSatNetwork.iupf.ppp[1].queue droppedPacketLengthsQueueOverflow:vector ETV
attr interpolationmode none
attr recordingmode vector
attr source packetLength(packetDropReasonIsQueueOverflow(packetDropped))
attr title "dropped packet lengths: queue overflow"
attr unit b
vector 89 Hybrid5GSatNetwork.iupf.ppp[1].queue flowQueueingTime:vector ETV
attr interpolationmode none
attr recordingmode vector
attr source queueingTime(demuxFlow(packetPulled))
attr title "flow queueing times"
attr unit s
vector 90 Hybrid5GSatNetwork.iupf.ppp[1].queue flowIncomingDataRate:vector ETV
attr interpolationmode linear
attr recordingmode vector
attr source throughput(flowPacketLength(demuxFlow(packetPushStarted)))
attr title "flow specific incoming data rate"
attr unit bps
vector 91 Hybrid5GSatNetwork.iupf.ppp[1].queue flowOutgoingDataRate:vector ETV
attr interpolationmode linear
attr recordingmode vector
attr source throughput(flowPacketLength(demuxFlow(packetPulled)))
attr title "flow specific outgoing data rate"
attr unit bps
vector 92 Hybrid5GSatNetwork.iupf.ppp[1].ppp transmissionState:vector ETV
attr interpolationmode sample-hold
attr recordingmode vector
attr source transmissionStateChanged
attr title "tx state"
vector 93 Hybrid5GSatNetwork.iupf.ppp[1].ppp txPk:vector(packetBytes) ETV
attr interpolationmode none
attr recordingmode vector(packetBytes)
attr source packetSentToLower
attr title "packets transmitted, packetBytes"
vector 94 Hybrid5GSatNetwork.iupf.ppp[1].ppp rxPkOk:vector(packetBytes) ETV
attr interpolationmode none
attr recordingmode vector(packetBytes)
attr source rxPkOk
attr title "packets received OK, packetBytes"
vector 95 Hybrid5GSatNetwork.iupf.ppp[1].ppp packetDropIncorrectlyReceived:vector(packetBytes) ETV
attr interpolationmode none
attr recordingmode vector(packetBytes)
attr source packetDropReasonIsIncorrectlyReceived(packetDropped)
attr title "packet drop: incorrectly received, packetBytes"
vector 96 Hybrid5GSatNetwork.iupf.ppp[1].ppp packetDropInterfaceDown:vector(packetBytes) ETV
attr interpolationmode none
attr recordingmode vector(packetBytes)
attr source packetDropReasonIsInterfaceDown(packetDropped)
attr title "packet drop: interface down, packetBytes"
vector 97 Hybrid5GSatNetwork.iupf.ppp[1].ppp rcvdPkFromHl:vector(packetBytes) ETV
attr interpolationmode none
attr recordingmode vector(packetBytes)
attr source packetReceivedFromUpper
attr title "packets received from higher layer, packetBytes"
vector 98 Hybrid5GSatNetwork.iupf.ppp[1].ppp passedUpPk:vector(packetBytes) ETV
attr interpolationmode none
attr recordingmode vector(packetBytes)
attr source packetSentToUpper
attr title "packets passed to higher layer, packetBytes"
vector 99 Hybrid5GSatNetwork.iupf.ppp[1] packetDropInterfaceDown:vector(packetBytes) ETV
attr interpolationmode none
attr recordingmode vector(packetBytes)
attr source packetDropReasonIsInterfaceDown(packetDropped)
attr title "packet drops: interface down, packetBytes"
vector 100 Hybrid5GSatNetwork.iupf.ppp[1] packetDropNoCarrier:vector(packetBytes) ETV
attr interpolationmode none
attr recordingmode vector(packetBytes)
attr source packetDropReasonIsNoCarrier(packetDropped)
attr title "packet drops: no carrier, packetBytes"
vector 101 Hybrid5GSatNetwork.iupf.ppp[2].queue queueLength:vector ETV
attr autoWarmupFilter false
attr interpolationmode sample-hold
attr recordingmode vector
attr source "warmup(atomic(constant0(packetPushEnded) + count(packetPushStarted) - count(packetPulled) - count(packetRemoved) - count(packetDropped)))"
attr title "queue length"
attr unit pk
vector 102 Hybrid5GSatNetwork.iupf.ppp[2].queue queueBitLength:vector ETV
attr autoWarmupFilter false
attr interpolationmode sample-hold
attr recordingmode vector
attr source "warmup(atomic(constant0(packetPushEnded) + sum(packetLength(packetPushStarted)) - sum(packetLength(packetPulled)) - sum(packetLength(packetRemoved)) - sum(packetLength(packetDropped))))"
attr title "queue bit length"
attr unit b
vector 103 Hybrid5GSatNetwork.iupf.ppp[2].queue queueingTime:vector ETV
attr interpolationmode none
attr recordingmode vector
attr source queueingTime(packetPulled)
attr title "queueing times"
attr unit s
vector 104 Hybrid5GSatNetwork.iupf.ppp[2].queue incomingPacketLengths:vector ETV
attr interpolationmode none
attr recordingmode vector
attr source packetLength(packetPushStarted)
attr title "incoming packet lengths"
attr unit b
vector 105 Hybrid5GSatNetwork.iupf.ppp[2].queue incomingDataRate:vector ETV
attr interpolationmode linear
attr recordingmode vector
attr source throughput(packetPushStarted)
attr title "incoming datarate"
attr unit bps
vector 106 Hybrid5GSatNetwork.iupf.ppp[2].queue outgoingPacketLengths:vector ETV
attr interpolationmode none
attr recordingmode vector
attr source packetLength(packetPulled)
attr title "outgoing packet lengths"
attr unit b
vector 107 Hybrid5GSatNetwork.iupf.ppp[2].queue outgoingDataRate:vector ETV
attr interpolationmode linear
attr recordingmode vector
attr source throughput(packetPulled)
attr title "outgoing datarate"
attr unit bps
vector 108 Hybrid5GSatNetwork.iupf.ppp[2].queue droppedPacketLengthsQueueOverflow:vector ETV
attr interpolationmode none
attr recordingmode vector
attr source packetLength(packetDropReasonIsQueueOverflow(packetDropped))
attr title "dropped packet lengths: queue overflow"
attr unit b
vector 109 Hybrid5GSatNetwork.iupf.ppp[2].queue flowQueueingTime:vector ETV
attr interpolationmode none
attr recordingmode vector
attr source queueingTime(demuxFlow(packetPulled))
attr title "flow queueing times"
attr unit s
vector 110 Hybrid5GSatNetwork.iupf.ppp[2].queue flowIncomingDataRate:vector ETV
attr interpolationmode linear
attr recordingmode vector
attr source throughput(flowPacketLength(demuxFlow(packetPushStarted)))
attr title "flow specific incoming data rate"
attr unit bps
vector 111 Hybrid5GSatNetwork.iupf.ppp[2].queue flowOutgoingDataRate:vector ETV
attr interpolationmode linear
attr recordingmode vector
attr source throughput(flowPacketLength(demuxFlow(packetPulled)))
attr title "flow specific outgoing data rate"
attr unit bps
vector 112 Hybrid5GSatNetwork.iupf.ppp[2].ppp transmissionState:vector ETV
attr interpolationmode sample-hold
attr recordingmode vector
attr source transmissionStateChanged
attr title "tx state"
vector 113 Hybrid5GSatNetwork.iupf.ppp[2].ppp txPk:vector(packetBytes) ETV
attr interpolationmode none
attr recordingmode vector(packetBytes)
attr source packetSentToLower
attr title "packets transmitted, packetBytes"
vector 114 Hybrid5GSatNetwork.iupf.ppp[2].ppp rxPkOk:vector(packetBytes) ETV
attr interpolationmode none
attr recordingmode vector(packetBytes)
attr source rxPkOk
attr title "packets received OK, packetBytes"
vector 115 Hybrid5GSatNetwork.iupf.ppp[2].ppp packetDropIncorrectlyReceived:vector(packetBytes) ETV
attr interpolationmode none
attr recordingmode vector(packetBytes)
attr source packetDropReasonIsIncorrectlyReceived(packetDropped)
attr title "packet drop: incorrectly received, packetBytes"
vector 116 Hybrid5GSatNetwork.iupf.ppp[2].ppp packetDropInterfaceDown:vector(packetBytes) ETV
attr interpolationmode none
attr recordingmode vector(packetBytes)
attr source packetDropReasonIsInterfaceDown(packetDropped)
attr title "packet drop: interface down, packetBytes"
vector 117 Hybrid5GSatNetwork.iupf.ppp[2].ppp rcvdPkFromHl:vector(packetBytes) ETV
attr interpolationmode none
attr recordingmode vector(packetBytes)
attr source packetReceivedFromUpper
attr title "packets received from higher layer, packetBytes"
vector 118 Hybrid5GSatNetwork.iupf.ppp[2].ppp passedUpPk:vector(packetBytes) ETV
attr interpolationmode none
attr recordingmode vector(packetBytes)
attr source packetSentToUpper
attr title "packets passed to higher layer, packetBytes"
vector 119 Hybrid5GSatNetwork.iupf.ppp[2] packetDropInterfaceDown:vector(packetBytes) ETV
attr interpolationmode none
attr recordingmode vector(packetBytes)
attr source packetDropReasonIsInterfaceDown(packetDropped)
attr title "packet drops: interface down, packetBytes"
vector 120 Hybrid5GSatNetwork.iupf.ppp[2] packetDropNoCarrier:vector(packetBytes) ETV
attr interpolationmode none
attr recordingmode vector(packetBytes)
attr source packetDropReasonIsNoCarrier(packetDropped)
attr title "packet drops: no carrier, packetBytes"
vector 121 Hybrid5GSatNetwork.iupf.ipv4.ip packetDropAddressResolutionFailed:vector(packetBytes) ETV
attr interpolationmode none
attr recordingmode vector(packetBytes)
attr source packetDropReasonIsAddressResolutionFailed(packetDropped)
attr title "packet drop: address resolution failed, packetBytes"
vector 122 Hybrid5GSatNetwork.iupf.ipv4.ip packetDropHopLimitReached:vector(packetBytes) ETV
attr interpolationmode none
attr recordingmode vector(packetBytes)
attr source packetDropReasonIsHopLimitReached(packetDropped)
attr title "packet drop: hop limit reached, packetBytes"
vector 123 Hybrid5GSatNetwork.iupf.ipv4.ip packetDropForwardingDisabled:vector(packetBytes) ETV
attr interpolationmode none
attr recordingmode vector(packetBytes)
attr source packetDropReasonIsForwardingDisabled(packetDropped)
attr title "packet drop: forwarding disabled, packetBytes"
vector 124 Hybrid5GSatNetwork.iupf.ipv4.ip packetDropNoInterfaceFound:vector(packetBytes) ETV
attr interpolationmode none
attr recordingmode vector(packetBytes)
attr source packetDropReasonIsNoInterfaceFound(packetDropped)
attr title "packet drop: no interface found, packetBytes"
vector 125 Hybrid5GSatNetwork.iupf.ipv4.ip packetDropNoRouteFound:vector(packetBytes) ETV
attr interpolationmode none
attr recordingmode vector(packetBytes)
attr source packetDropReasonIsNoRouteFound(packetDropped)
attr title "packet drop: no route found, packetBytes"
vector 126 Hybrid5GSatNetwork.iupf.ipv4.ip packetDropUndefined:vector(packetBytes) ETV
attr interpolationmode none
attr recordingmode vector(packetBytes)
attr source packetDropReasonIsUndefined(packetDropped)
attr title "packet drop: undefined, packetBytes"
vector 127 Hybrid5GSatNetwork.iupf.ipv4.arp arpRequestSent:vector(packetBytes) ETV
attr recordingmode vector(packetBytes)
attr source arpRequestSent
attr title "ARP request sent, packetBytes"
vector 128 Hybrid5GSatNetwork.iupf.ipv4.arp arpReplySent:vector(packetBytes) ETV
attr recordingmode vector(packetBytes)
attr source arpReplySent
attr title "ARP replies sent, packetBytes"
vector 129 Hybrid5GSatNetwork.iupf.pppIf.queue queueLength:vector ETV
attr autoWarmupFilter false
attr interpolationmode sample-hold
attr recordingmode vector
attr source "warmup(atomic(constant0(packetPushEnded) + count(packetPushStarted) - count(packetPulled) - count(packetRemoved) - count(packetDropped)))"
attr title "queue length"
attr unit pk
vector 130 Hybrid5GSatNetwork.iupf.pppIf.queue queueBitLength:vector ETV
attr autoWarmupFilter false
attr interpolationmode sample-hold
attr recordingmode vector
attr source "warmup(atomic(constant0(packetPushEnded) + sum(packetLength(packetPushStarted)) - sum(packetLength(packetPulled)) - sum(packetLength(packetRemoved)) - sum(packetLength(packetDropped))))"
attr title "queue bit length"
attr unit b
vector 131 Hybrid5GSatNetwork.iupf.pppIf.queue queueingTime:vector ETV
attr interpolationmode none
attr recordingmode vector
attr source queueingTime(packetPulled)
attr title "queueing times"
attr unit s
vector 132 Hybrid5GSatNetwork.iupf.pppIf.queue incomingPacketLengths:vector ETV
attr interpolationmode none
attr recordingmode vector
attr source packetLength(packetPushStarted)
attr title "incoming packet lengths"
attr unit b
vector 133 Hybrid5GSatNetwork.iupf.pppIf.queue incomingDataRate:vector ETV
attr interpolationmode linear
attr recordingmode vector
attr source throughput(packetPushStarted)
attr title "incoming datarate"
attr unit bps
vector 134 Hybrid5GSatNetwork.iupf.pppIf.queue outgoingPacketLengths:vector ETV
attr interpolationmode none
attr recordingmode vector
attr source packetLength(packetPulled)
attr title "outgoing packet lengths"
attr unit b
vector 135 Hybrid5GSatNetwork.iupf.pppIf.queue outgoingDataRate:vector ETV
attr interpolationmode linear
attr recordingmode vector
attr source throughput(packetPulled)
attr title "outgoing datarate"
attr unit bps
vector 136 Hybrid5GSatNetwork.iupf.pppIf.queue droppedPacketLengthsQueueOverflow:vector ETV
attr interpolationmode none
attr recordingmode vector
attr source packetLength(packetDropReasonIsQueueOverflow(packetDropped))
attr title "dropped packet lengths: queue overflow"
attr unit b
vector 137 Hybrid5GSatNetwork.iupf.pppIf.queue flowQueueingTime:vector ETV
attr interpolationmode none
attr recordingmode vector
attr source queueingTime(demuxFlow(packetPulled))
attr title "flow queueing times"
attr unit s
vector 138 Hybrid5GSatNetwork.iupf.pppIf.queue flowIncomingDataRate:vector ETV
attr interpolationmode linear
attr recordingmode vector
attr source throughput(flowPacketLength(demuxFlow(packetPushStarted)))
attr title "flow specific incoming data rate"
attr unit bps
vector 139 Hybrid5GSatNetwork.iupf.pppIf.queue flowOutgoingDataRate:vector ETV
attr interpolationmode linear
attr recordingmode vector
attr source throughput(flowPacketLength(demuxFlow(packetPulled)))
attr title "flow specific outgoing data rate"
attr unit bps
vector 140 Hybrid5GSatNetwork.iupf.pppIf.ppp transmissionState:vector ETV
attr interpolationmode sample-hold
attr recordingmode vector
attr source transmissionStateChanged
attr title "tx state"
vector 141 Hybrid5GSatNetwork.iupf.pppIf.ppp txPk:vector(packetBytes) ETV
attr interpolationmode none
attr recordingmode vector(packetBytes)
attr source packetSentToLower
attr title "packets transmitted, packetBytes"
vector 142 Hybrid5GSatNetwork.iupf.pppIf.ppp rxPkOk:vector(packetBytes) ETV
attr interpolationmode none
attr recordingmode vector(packetBytes)
attr source rxPkOk
attr title "packets received OK, packetBytes"
vector 143 Hybrid5GSatNetwork.iupf.pppIf.ppp packetDropIncorrectlyReceived:vector(packetBytes) ETV
attr interpolationmode none
attr recordingmode vector(packetBytes)
attr source packetDropReasonIsIncorrectlyReceived(packetDropped)
attr title "packet drop: incorrectly received, packetBytes"
vector 144 Hybrid5GSatNetwork.iupf.pppIf.ppp packetDropInterfaceDown:vector(packetBytes) ETV
attr interpolationmode none
attr recordingmode vector(packetBytes)
attr source packetDropReasonIsInterfaceDown(packetDropped)
attr title "packet drop: interface down, packetBytes"
vector 145 Hybrid5GSatNetwork.iupf.pppIf.ppp rcvdPkFromHl:vector(packetBytes) ETV
attr interpolationmode none
attr recordingmode vector(packetBytes)
attr source packetReceivedFromUpper
attr title "packets received from higher layer, packetBytes"
vector 146 Hybrid5GSatNetwork.iupf.pppIf.ppp passedUpPk:vector(packetBytes) ETV
attr interpolationmode none
attr recordingmode vector(packetBytes)
attr source packetSentToUpper
attr title "packets passed to higher layer, packetBytes"
vector 147 Hybrid5GSatNetwork.iupf.pppIf packetDropInterfaceDown:vector(packetBytes) ETV
attr interpolationmode none
attr recordingmode vector(packetBytes)
attr source packetDropReasonIsInterfaceDown(packetDropped)
attr title "packet drops: interface down, packetBytes"
vector 148 Hybrid5GSatNetwork.iupf.pppIf packetDropNoCarrier:vector(packetBytes) ETV
attr interpolationmode none
attr recordingmode vector(packetBytes)
attr source packetDropReasonIsNoCarrier(packetDropped)
attr title "packet drops: no carrier, packetBytes"
vector 149 Hybrid5GSatNetwork.iupf.udp packetSent:vector(packetBytes) ETV
attr interpolationmode none
attr recordingmode vector(packetBytes)
attr source packetSent
attr title "packets sent, packetBytes"
vector 150 Hybrid5GSatNetwork.iupf.udp packetReceived:vector(packetBytes) ETV
attr interpolationmode none
attr recordingmode vector(packetBytes)
attr source packetReceived
attr title "packets received, packetBytes"
vector 151 Hybrid5GSatNetwork.iupf.udp passedUpPk:vector(count) ETV
attr interpolationmode none
attr recordingmode vector(count)
attr source packetSentToUpper
attr title "packets passed up, count"
vector 152 Hybrid5GSatNetwork.iupf.udp droppedPkWrongPort:vector(count) ETV
attr interpolationmode none
attr recordingmode vector(count)
attr source packetDropReasonIsNoPortFound(packetDropped)
attr title "packets dropped (wrong port), count"
vector 153 Hybrid5GSatNetwork.iupf.udp droppedPkBadChecksum:vector(count) ETV
attr interpolationmode none
attr recordingmode vector(count)
attr source packetDropReasonIsIncorrectlyReceived(packetDropped)
attr title "packets dropped (checksum error), count"
vector 154 Hybrid5GSatNetwork.gnb1.cellularNic.pdcpRrc receivedPacketFromUpperLayer:vector(packetBytes) ETV
attr interpolationmode none
attr recordingmode vector(packetBytes)
attr source receivedPacketFromUpperLayer
vector 155 Hybrid5GSatNetwork.gnb1.cellularNic.pdcpRrc receivedPacketFromLowerLayer:vector(packetBytes) ETV
attr interpolationmode none
attr recordingmode vector(packetBytes)
attr source receivedPacketFromLowerLayer
vector 156 Hybrid5GSatNetwork.gnb1.cellularNic.pdcpRrc sentPacketToUpperLayer:vector(packetBytes) ETV
attr interpolationmode none
attr recordingmode vector(packetBytes)
attr source sentPacketToUpperLayer
vector 157 Hybrid5GSatNetwork.gnb1.cellularNic.pdcpRrc sentPacketToLowerLayer:vector(packetBytes) ETV
attr interpolationmode none
attr recordingmode vector(packetBytes)
attr source sentPacketToLowerLayer
vector 158 Hybrid5GSatNetwork.gnb1.cellularNic.rlc.tm rlcPacketLossUl:vector ETV
attr recordingmode vector
attr source rlcPacketLossUl
attr title "rlc Packet Loss"
attr unit ""
vector 159 Hybrid5GSatNetwork.gnb1.cellularNic.rlc.tm rlcPacketLossDl:vector ETV
attr recordingmode vector
attr source rlcPacketLossDl
attr title "rlc Packet Loss"
attr unit ""
vector 160 Hybrid5GSatNetwork.gnb1.cellularNic.rlc.tm receivedPacketFromUpperLayer:vector(packetBytes) ETV
attr interpolationmode none
attr recordingmode vector(packetBytes)
attr source receivedPacketFromUpperLayer
vector 161 Hybrid5GSatNetwork.gnb1.cellularNic.rlc.tm receivedPacketFromLowerLayer:vector(packetBytes) ETV
attr interpolationmode none
attr recordingmode vector(packetBytes)
attr source receivedPacketFromLowerLayer
vector 162 Hybrid5GSatNetwork.gnb1.cellularNic.rlc.tm sentPacketToUpperLayer:vector(packetBytes) ETV
attr interpolationmode none
attr recordingmode vector(packetBytes)
attr source sentPacketToUpperLayer
vector 163 Hybrid5GSatNetwork.gnb1.cellularNic.rlc.tm sentPacketToLowerLayer:vector(packetBytes) ETV
attr interpolationmode none
attr recordingmode vector(packetBytes)
attr source sentPacketToLowerLayer
vector 164 Hybrid5GSatNetwork.gnb1.cellularNic.rlc.um rlcDelayDl:vector ETV
attr recordingmode vector
attr source rlcDelayDl
attr title "Delay at the rlc layer DL"
attr unit s
vector 165 Hybrid5GSatNetwork.gnb1.cellularNic.rlc.um rlcThroughputDl:vector ETV
attr recordingmode vector
attr source rlcThroughputDl
attr title "Throughput at the rlc layer DL"
attr unit Bps
vector 166 Hybrid5GSatNetwork.gnb1.cellularNic.rlc.um rlcDelayUl:vector ETV
attr recordingmode vector
attr source rlcDelayUl
attr title "Delay at the rlc layer UL"
attr unit s
vector 167 Hybrid5GSatNetwork.gnb1.cellularNic.rlc.um rlcThroughputUl:vector ETV
attr recordingmode vector
attr source rlcThroughputUl
attr title "Throughput at the rlc layer UL"
attr unit Bps
vector 168 Hybrid5GSatNetwork.gnb1.cellularNic.rlc.um rlcPacketLossUl:vector ETV
attr recordingmode vector
attr source rlcPacketLossUl
attr title "rlc Packet Loss"
attr unit ""
vector 169 Hybrid5GSatNetwork.gnb1.cellularNic.rlc.um rlcPacketLossDl:vector ETV
attr recordingmode vector
attr source rlcPacketLossDl
attr title "rlc Packet Loss"
attr unit ""
vector 170 Hybrid5GSatNetwork.gnb1.cellularNic.rlc.um rlcPacketLossTotal:vector ETV
attr recordingmode vector
attr source rlcPacketLossTotal
attr title "rlc Packet Loss"
attr unit ""
vector 171 Hybrid5GSatNetwork.gnb1.cellularNic.rlc.um rlcPduDelayDl:vector ETV
attr recordingmode vector
attr source rlcPduDelayDl
attr title "Delay at the rlc layer UL"
attr unit s
vector 172 Hybrid5GSatNetwork.gnb1.cellularNic.rlc.um rlcPduThroughputDl:vector ETV
attr recordingmode vector
attr source rlcPduThroughputDl
attr title "Throughput at the rlc layer DL"
attr unit Bps
vector 173 Hybrid5GSatNetwork.gnb1.cellularNic.rlc.um rlcPduDelayUl:vector ETV
attr recordingmode vector
attr source rlcPduDelayUl
attr title "Delay at the rlc layer UL"
attr unit s
vector 174 Hybrid5GSatNetwork.gnb1.cellularNic.rlc.um rlcPduThroughputUl:vector ETV
attr recordingmode vector
attr source rlcPduThroughputUl
attr title "Throughput at the rlc layer UL"
attr unit Bps
vector 175 Hybrid5GSatNetwork.gnb1.cellularNic.rlc.um rlcPduPacketLossUl:vector ETV
attr recordingmode vector
attr source rlcPduPacketLossUl
attr title "rlc Packet Loss"
attr unit ""
vector 176 Hybrid5GSatNetwork.gnb1.cellularNic.rlc.um rlcPduPacketLossDl:vector ETV
attr recordingmode vector
attr source rlcPduPacketLossDl
attr title "rlc Packet Loss"
attr unit ""
vector 177 Hybrid5GSatNetwork.gnb1.cellularNic.rlc.um receivedPacketFromUpperLayer:vector(packetBytes) ETV
attr interpolationmode none
attr recordingmode vector(packetBytes)
attr source receivedPacketFromUpperLayer
vector 178 Hybrid5GSatNetwork.gnb1.cellularNic.rlc.um receivedPacketFromLowerLayer:vector(packetBytes) ETV
attr interpolationmode none
attr recordingmode vector(packetBytes)
attr source receivedPacketFromLowerLayer
vector 179 Hybrid5GSatNetwork.gnb1.cellularNic.rlc.um sentPacketToUpperLayer:vector(packetBytes) ETV
attr interpolationmode none
attr recordingmode vector(packetBytes)
attr source sentPacketToUpperLayer
vector 180 Hybrid5GSatNetwork.gnb1.cellularNic.rlc.um sentPacketToLowerLayer:vector(packetBytes) ETV
attr interpolationmode none
attr recordingmode vector(packetBytes)
attr source sentPacketToLowerLayer
vector 181 Hybrid5GSatNetwork.gnb1.cellularNic.rlc.um rlcDelayD2D:vector ETV
attr recordingmode vector
attr source rlcDelayD2D
attr title "Delay at the rlc layer D2D"
attr unit s
vector 182 Hybrid5GSatNetwork.gnb1.cellularNic.rlc.um rlcThroughputD2D:vector ETV
attr recordingmode vector
attr source rlcThroughputD2D
attr title "Throughput at the rlc layer D2D"
attr unit Bps
vector 183 Hybrid5GSatNetwork.gnb1.cellularNic.rlc.um rlcPacketLossD2D:vector ETV
attr recordingmode vector
attr source rlcPacketLossD2D
attr title "rlc Packet Loss"
attr unit ""
vector 184 Hybrid5GSatNetwork.gnb1.cellularNic.rlc.um rlcCellPacketLossD2D:vector ETV
attr recordingmode vector
attr source rlcCellPacketLossD2D
attr title "rlc Cell Packet Loss"
attr unit ""
vector 185 Hybrid5GSatNetwork.gnb1.cellularNic.rlc.um rlcCellThroughputD2D:vector ETV
attr recordingmode vector
attr source rlcCellThroughputD2D
attr title "Cell Throughput at the rlc layer D2D"
attr unit Bps
vector 186 Hybrid5GSatNetwork.gnb1.cellularNic.rlc.um rlcPduDelayD2D:vector ETV
attr recordingmode vector
attr source rlcPduDelayD2D
attr title "Delay at the rlc layer D2D"
attr unit s
vector 187 Hybrid5GSatNetwork.gnb1.cellularNic.rlc.um rlcPduThroughputD2D:vector ETV
attr recordingmode vector
attr source rlcPduThroughputD2D
attr title "Throughput at the rlc layer D2D"
attr unit Bps
vector 188 Hybrid5GSatNetwork.gnb1.cellularNic.rlc.um rlcPduPacketLossD2D:vector ETV
attr recordingmode vector
attr source rlcPduPacketLossD2D
attr title "rlc Packet Loss"
attr unit ""
vector 189 Hybrid5GSatNetwork.gnb1.cellularNic.mac macDelayDl:vector ETV
attr recordingmode vector
attr source macDelayDl
attr title "Delay at the MAC layer UL"
attr unit s
vector 190 Hybrid5GSatNetwork.gnb1.cellularNic.mac macDelayUl:vector ETV
attr recordingmode vector
attr source macDelayUl
attr title "Delay at the MAC layer UL"
attr unit s
vector 191 Hybrid5GSatNetwork.gnb1.cellularNic.mac harqErrorRateUl:vector ETV
attr recordingmode vector
attr source harqErrorRateUl
attr title "Harq Error Rate Ul"
attr unit ""
vector 192 Hybrid5GSatNetwork.gnb1.cellularNic.mac harqErrorRateDl:vector ETV
attr recordingmode vector
attr source harqErrorRateDl
attr title "Harq Error Rate Dl"
attr unit ""
vector 193 Hybrid5GSatNetwork.gnb1.cellularNic.mac harqTxAttemptsDl:vector ETV
attr recordingmode vector
attr source harqTxAttemptsDl
attr title "Harq Tx Attempts Dl"
attr unit ""
vector 194 Hybrid5GSatNetwork.gnb1.cellularNic.mac harqTxAttemptsUl:vector ETV
attr recordingmode vector
attr source harqTxAttemptsUl
attr title "Harq Tx Attempts Ul"
attr unit ""
vector 195 Hybrid5GSatNetwork.gnb1.cellularNic.mac harqErrorRate_1st_Ul:vector ETV
attr recordingmode vector
attr source harqErrorRate_1st_Ul
attr title "Harq Error Rate Ul (1st tx)"
attr unit ""
vector 196 Hybrid5GSatNetwork.gnb1.cellularNic.mac harqErrorRate_1st_Dl:vector ETV
attr recordingmode vector
attr source harqErrorRate_1st_Dl
attr title "Harq Error Rate Dl (1st tx)"
attr unit ""
vector 197 Hybrid5GSatNetwork.gnb1.cellularNic.mac harqErrorRate_2nd_Ul:vector ETV
attr recordingmode vector
attr source harqErrorRate_2nd_Ul
attr title "Harq Error Rate Ul (2nd tx)"
attr unit ""
vector 198 Hybrid5GSatNetwork.gnb1.cellularNic.mac harqErrorRate_2nd_Dl:vector ETV
attr recordingmode vector
attr source harqErrorRate_2nd_Dl
attr title "Harq Error Rate Dl (2nd tx)"
attr unit ""
vector 199 Hybrid5GSatNetwork.gnb1.cellularNic.mac harqErrorRate_3rd_Ul:vector ETV
attr recordingmode vector
attr source harqErrorRate_3rd_Ul
attr title "Harq Error Rate Ul (3rd tx)"
attr unit ""
vector 200 Hybrid5GSatNetwork.gnb1.cellularNic.mac harqErrorRate_3rd_Dl:vector ETV
attr recordingmode vector
attr source harqErrorRate_3rd_Dl
attr title "Harq Error Rate Dl (3rd tx)"
attr unit ""
vector 201 Hybrid5GSatNetwork.gnb1.cellularNic.mac harqErrorRate_4th_Ul:vector ETV
attr recordingmode vector
attr source harqErrorRate_4th_Ul
attr title "Harq Error Rate Ul (4th tx)"
attr unit ""
vector 202 Hybrid5GSatNetwork.gnb1.cellularNic.mac harqErrorRate_4th_Dl:vector ETV
attr recordingmode vector
attr source harqErrorRate_4th_Dl
attr title "Harq Error Rate Dl (4th tx)"
attr unit ""
vector 203 Hybrid5GSatNetwork.gnb1.cellularNic.mac receivedPacketFromUpperLayer:vector(packetBytes) ETV
attr interpolationmode none
attr recordingmode vector(packetBytes)
attr source receivedPacketFromUpperLayer
vector 204 Hybrid5GSatNetwork.gnb1.cellularNic.mac receivedPacketFromLowerLayer:vector(packetBytes) ETV
attr interpolationmode none
attr recordingmode vector(packetBytes)
attr source receivedPacketFromLowerLayer
vector 205 Hybrid5GSatNetwork.gnb1.cellularNic.mac sentPacketToUpperLayer:vector(packetBytes) ETV
attr interpolationmode none
attr recordingmode vector(packetBytes)
attr source sentPacketToUpperLayer
vector 206 Hybrid5GSatNetwork.gnb1.cellularNic.mac sentPacketToLowerLayer:vector(packetBytes) ETV
attr interpolationmode none
attr recordingmode vector(packetBytes)
attr source sentPacketToLowerLayer
vector 207 Hybrid5GSatNetwork.gnb1.cellularNic.mac avgServedBlocksDl:vector ETV
attr recordingmode vector
attr source avgServedBlocksDl
attr title "Average number of allocated Resource Blocks in the Dl"
attr unit blocks
vector 208 Hybrid5GSatNetwork.gnb1.cellularNic.mac avgServedBlocksUl:vector ETV
attr recordingmode vector
attr source avgServedBlocksUl
attr title "Average number of allocated Resource Blocks in the Dl"
attr unit blocks
vector 209 Hybrid5GSatNetwork.gnb1.cellularNic.channelModel[0] rcvdSinrDl:vector ETV
attr recordingmode vector
attr source rcvdSinrDl
attr title "SINR measured at packet reception, DL"
attr unit dB
vector 210 Hybrid5GSatNetwork.gnb1.cellularNic.channelModel[0] rcvdSinrUl:vector ETV
attr recordingmode vector
attr source rcvdSinrUl
attr title "SINR measured at packet reception, UL"
attr unit dB
vector 211 Hybrid5GSatNetwork.gnb1.cellularNic.channelModel[0] rcvdSinrD2D:vector ETV
attr recordingmode vector
attr source rcvdSinrD2D
attr title "SINR measured at packet reception, D2D"
attr unit dB
vector 212 Hybrid5GSatNetwork.gnb1.cellularNic.channelModel[0] measuredSinrDl:vector ETV
attr recordingmode vector
attr source measuredSinrDl
attr title "SINR measured at feedback computation, DL"
attr unit dB
vector 213 Hybrid5GSatNetwork.gnb1.cellularNic.channelModel[0] measuredSinrUl:vector ETV
attr recordingmode vector
attr source measuredSinrUl
attr title "SINR measured at feedback computation, UL"
attr unit dB
vector 214 Hybrid5GSatNetwork.gnb1.cellularNic packetDropInterfaceDown:vector(packetBytes) ETV
attr interpolationmode none
attr recordingmode vector(packetBytes)
attr source packetDropReasonIsInterfaceDown(packetDropped)
attr title "packet drops: interface down, packetBytes"
vector 215 Hybrid5GSatNetwork.gnb1.cellularNic packetDropNoCarrier:vector(packetBytes) ETV
attr interpolationmode none
attr recordingmode vector(packetBytes)
attr source packetDropReasonIsNoCarrier(packetDropped)
attr title "packet drops: no carrier, packetBytes"
vector 216 Hybrid5GSatNetwork.gnb1.pppIf.queue queueLength:vector ETV
attr autoWarmupFilter false
attr interpolationmode sample-hold
attr recordingmode vector
attr source "warmup(atomic(constant0(packetPushEnded) + count(packetPushStarted) - count(packetPulled) - count(packetRemoved) - count(packetDropped)))"
attr title "queue length"
attr unit pk
vector 217 Hybrid5GSatNetwork.gnb1.pppIf.queue queueBitLength:vector ETV
attr autoWarmupFilter false
attr interpolationmode sample-hold
attr recordingmode vector
attr source "warmup(atomic(constant0(packetPushEnded) + sum(packetLength(packetPushStarted)) - sum(packetLength(packetPulled)) - sum(packetLength(packetRemoved)) - sum(packetLength(packetDropped))))"
attr title "queue bit length"
attr unit b
vector 218 Hybrid5GSatNetwork.gnb1.pppIf.queue queueingTime:vector ETV
attr interpolationmode none
attr recordingmode vector
attr source queueingTime(packetPulled)
attr title "queueing times"
attr unit s
vector 219 Hybrid5GSatNetwork.gnb1.pppIf.queue incomingPacketLengths:vector ETV
attr interpolationmode none
attr recordingmode vector
attr source packetLength(packetPushStarted)
attr title "incoming packet lengths"
attr unit b
vector 220 Hybrid5GSatNetwork.gnb1.pppIf.queue incomingDataRate:vector ETV
attr interpolationmode linear
attr recordingmode vector
attr source throughput(packetPushStarted)
attr title "incoming datarate"
attr unit bps
vector 221 Hybrid5GSatNetwork.gnb1.pppIf.queue outgoingPacketLengths:vector ETV
attr interpolationmode none
attr recordingmode vector
attr source packetLength(packetPulled)
attr title "outgoing packet lengths"
attr unit b
vector 222 Hybrid5GSatNetwork.gnb1.pppIf.queue outgoingDataRate:vector ETV
attr interpolationmode linear
attr recordingmode vector
attr source throughput(packetPulled)
attr title "outgoing datarate"
attr unit bps
vector 223 Hybrid5GSatNetwork.gnb1.pppIf.queue droppedPacketLengthsQueueOverflow:vector ETV
attr interpolationmode none
attr recordingmode vector
attr source packetLength(packetDropReasonIsQueueOverflow(packetDropped))
attr title "dropped packet lengths: queue overflow"
attr unit b
vector 224 Hybrid5GSatNetwork.gnb1.pppIf.queue flowQueueingTime:vector ETV
attr interpolationmode none
attr recordingmode vector
attr source queueingTime(demuxFlow(packetPulled))
attr title "flow queueing times"
attr unit s
vector 225 Hybrid5GSatNetwork.gnb1.pppIf.queue flowIncomingDataRate:vector ETV
attr interpolationmode linear
attr recordingmode vector
attr source throughput(flowPacketLength(demuxFlow(packetPushStarted)))
attr title "flow specific incoming data rate"
attr unit bps
vector 226 Hybrid5GSatNetwork.gnb1.pppIf.queue flowOutgoingDataRate:vector ETV
attr interpolationmode linear
attr recordingmode vector
attr source throughput(flowPacketLength(demuxFlow(packetPulled)))
attr title "flow specific outgoing data rate"
attr unit bps
vector 227 Hybrid5GSatNetwork.gnb1.pppIf.ppp transmissionState:vector ETV
attr interpolationmode sample-hold
attr recordingmode vector
attr source transmissionStateChanged
attr title "tx state"
vector 228 Hybrid5GSatNetwork.gnb1.pppIf.ppp txPk:vector(packetBytes) ETV
attr interpolationmode none
attr recordingmode vector(packetBytes)
attr source packetSentToLower
attr title "packets transmitted, packetBytes"
vector 229 Hybrid5GSatNetwork.gnb1.pppIf.ppp rxPkOk:vector(packetBytes) ETV
attr interpolationmode none
attr recordingmode vector(packetBytes)
attr source rxPkOk
attr title "packets received OK, packetBytes"
vector 230 Hybrid5GSatNetwork.gnb1.pppIf.ppp packetDropIncorrectlyReceived:vector(packetBytes) ETV
attr interpolationmode none
attr recordingmode vector(packetBytes)
attr source packetDropReasonIsIncorrectlyReceived(packetDropped)
attr title "packet drop: incorrectly received, packetBytes"
vector 231 Hybrid5GSatNetwork.gnb1.pppIf.ppp packetDropInterfaceDown:vector(packetBytes) ETV
attr interpolationmode none
attr recordingmode vector(packetBytes)
attr source packetDropReasonIsInterfaceDown(packetDropped)
attr title "packet drop: interface down, packetBytes"
vector 232 Hybrid5GSatNetwork.gnb1.pppIf.ppp rcvdPkFromHl:vector(packetBytes) ETV
attr interpolationmode none
attr recordingmode vector(packetBytes)
attr source packetReceivedFromUpper
attr title "packets received from higher layer, packetBytes"
vector 233 Hybrid5GSatNetwork.gnb1.pppIf.ppp passedUpPk:vector(packetBytes) ETV
attr interpolationmode none
attr recordingmode vector(packetBytes)
attr source packetSentToUpper
attr title "packets passed to higher layer, packetBytes"
vector 234 Hybrid5GSatNetwork.gnb1.pppIf packetDropInterfaceDown:vector(packetBytes) ETV
attr interpolationmode none
attr recordingmode vector(packetBytes)
attr source packetDropReasonIsInterfaceDown(packetDropped)
attr title "packet drops: interface down, packetBytes"
vector 235 Hybrid5GSatNetwork.gnb1.pppIf packetDropNoCarrier:vector(packetBytes) ETV
attr interpolationmode none
attr recordingmode vector(packetBytes)
attr source packetDropReasonIsNoCarrier(packetDropped)
attr title "packet drops: no carrier, packetBytes"
vector 236 Hybrid5GSatNetwork.gnb1.pppMEHostIf.queue queueLength:vector ETV
attr autoWarmupFilter false
attr interpolationmode sample-hold
attr recordingmode vector
attr source "warmup(atomic(constant0(packetPushEnded) + count(packetPushStarted) - count(packetPulled) - count(packetRemoved) - count(packetDropped)))"
attr title "queue length"
attr unit pk
vector 237 Hybrid5GSatNetwork.gnb1.pppMEHostIf.queue queueBitLength:vector ETV
attr autoWarmupFilter false
attr interpolationmode sample-hold
attr recordingmode vector
attr source "warmup(atomic(constant0(packetPushEnded) + sum(packetLength(packetPushStarted)) - sum(packetLength(packetPulled)) - sum(packetLength(packetRemoved)) - sum(packetLength(packetDropped))))"
attr title "queue bit length"
attr unit b
vector 238 Hybrid5GSatNetwork.gnb1.pppMEHostIf.queue queueingTime:vector ETV
attr interpolationmode none
attr recordingmode vector
attr source queueingTime(packetPulled)
attr title "queueing times"
attr unit s
vector 239 Hybrid5GSatNetwork.gnb1.pppMEHostIf.queue incomingPacketLengths:vector ETV
attr interpolationmode none
attr recordingmode vector
attr source packetLength(packetPushStarted)
attr title "incoming packet lengths"
attr unit b
vector 240 Hybrid5GSatNetwork.gnb1.pppMEHostIf.queue incomingDataRate:vector ETV
attr interpolationmode linear
attr recordingmode vector
attr source throughput(packetPushStarted)
attr title "incoming datarate"
attr unit bps
vector 241 Hybrid5GSatNetwork.gnb1.pppMEHostIf.queue outgoingPacketLengths:vector ETV
attr interpolationmode none
attr recordingmode vector
attr source packetLength(packetPulled)
attr title "outgoing packet lengths"
attr unit b
vector 242 Hybrid5GSatNetwork.gnb1.pppMEHostIf.queue outgoingDataRate:vector ETV
attr interpolationmode linear
attr recordingmode vector
attr source throughput(packetPulled)
attr title "outgoing datarate"
attr unit bps
vector 243 Hybrid5GSatNetwork.gnb1.pppMEHostIf.queue droppedPacketLengthsQueueOverflow:vector ETV
attr interpolationmode none
attr recordingmode vector
attr source packetLength(packetDropReasonIsQueueOverflow(packetDropped))
attr title "dropped packet lengths: queue overflow"
attr unit b
vector 244 Hybrid5GSatNetwork.gnb1.pppMEHostIf.queue flowQueueingTime:vector ETV
attr interpolationmode none
attr recordingmode vector
attr source queueingTime(demuxFlow(packetPulled))
attr title "flow queueing times"
attr unit s
vector 245 Hybrid5GSatNetwork.gnb1.pppMEHostIf.queue flowIncomingDataRate:vector ETV
attr interpolationmode linear
attr recordingmode vector
attr source throughput(flowPacketLength(demuxFlow(packetPushStarted)))
attr title "flow specific incoming data rate"
attr unit bps
vector 246 Hybrid5GSatNetwork.gnb1.pppMEHostIf.queue flowOutgoingDataRate:vector ETV
attr interpolationmode linear
attr recordingmode vector
attr source throughput(flowPacketLength(demuxFlow(packetPulled)))
attr title "flow specific outgoing data rate"
attr unit bps
vector 247 Hybrid5GSatNetwork.gnb1.pppMEHostIf.ppp transmissionState:vector ETV
attr interpolationmode sample-hold
attr recordingmode vector
attr source transmissionStateChanged
attr title "tx state"
vector 248 Hybrid5GSatNetwork.gnb1.pppMEHostIf.ppp txPk:vector(packetBytes) ETV
attr interpolationmode none
attr recordingmode vector(packetBytes)
attr source packetSentToLower
attr title "packets transmitted, packetBytes"
vector 249 Hybrid5GSatNetwork.gnb1.pppMEHostIf.ppp rxPkOk:vector(packetBytes) ETV
attr interpolationmode none
attr recordingmode vector(packetBytes)
attr source rxPkOk
attr title "packets received OK, packetBytes"
vector 250 Hybrid5GSatNetwork.gnb1.pppMEHostIf.ppp packetDropIncorrectlyReceived:vector(packetBytes) ETV
attr interpolationmode none
attr recordingmode vector(packetBytes)
attr source packetDropReasonIsIncorrectlyReceived(packetDropped)
attr title "packet drop: incorrectly received, packetBytes"
vector 251 Hybrid5GSatNetwork.gnb1.pppMEHostIf.ppp packetDropInterfaceDown:vector(packetBytes) ETV
attr interpolationmode none
attr recordingmode vector(packetBytes)
attr source packetDropReasonIsInterfaceDown(packetDropped)
attr title "packet drop: interface down, packetBytes"
vector 252 Hybrid5GSatNetwork.gnb1.pppMEHostIf.ppp rcvdPkFromHl:vector(packetBytes) ETV
attr interpolationmode none
attr recordingmode vector(packetBytes)
attr source packetReceivedFromUpper
attr title "packets received from higher layer, packetBytes"
vector 253 Hybrid5GSatNetwork.gnb1.pppMEHostIf.ppp passedUpPk:vector(packetBytes) ETV
attr interpolationmode none
attr recordingmode vector(packetBytes)
attr source packetSentToUpper
attr title "packets passed to higher layer, packetBytes"
vector 254 Hybrid5GSatNetwork.gnb1.pppMEHostIf packetDropInterfaceDown:vector(packetBytes) ETV
attr interpolationmode none
attr recordingmode vector(packetBytes)
attr source packetDropReasonIsInterfaceDown(packetDropped)
attr title "packet drops: interface down, packetBytes"
vector 255 Hybrid5GSatNetwork.gnb1.pppMEHostIf packetDropNoCarrier:vector(packetBytes) ETV
attr interpolationmode none
attr recordingmode vector(packetBytes)
attr source packetDropReasonIsNoCarrier(packetDropped)
attr title "packet drops: no carrier, packetBytes"
vector 256 Hybrid5GSatNetwork.gnb1.ipv4.ip packetDropAddressResolutionFailed:vector(packetBytes) ETV
attr interpolationmode none
attr recordingmode vector(packetBytes)
attr source packetDropReasonIsAddressResolutionFailed(packetDropped)
attr title "packet drop: address resolution failed, packetBytes"
vector 257 Hybrid5GSatNetwork.gnb1.ipv4.ip packetDropHopLimitReached:vector(packetBytes) ETV
attr interpolationmode none
attr recordingmode vector(packetBytes)
attr source packetDropReasonIsHopLimitReached(packetDropped)
attr title "packet drop: hop limit reached, packetBytes"
vector 258 Hybrid5GSatNetwork.gnb1.ipv4.ip packetDropForwardingDisabled:vector(packetBytes) ETV
attr interpolationmode none
attr recordingmode vector(packetBytes)
attr source packetDropReasonIsForwardingDisabled(packetDropped)
attr title "packet drop: forwarding disabled, packetBytes"
vector 259 Hybrid5GSatNetwork.gnb1.ipv4.ip packetDropNoInterfaceFound:vector(packetBytes) ETV
attr interpolationmode none
attr recordingmode vector(packetBytes)
attr source packetDropReasonIsNoInterfaceFound(packetDropped)
attr title "packet drop: no interface found, packetBytes"
vector 260 Hybrid5GSatNetwork.gnb1.ipv4.ip packetDropNoRouteFound:vector(packetBytes) ETV
attr interpolationmode none
attr recordingmode vector(packetBytes)
attr source packetDropReasonIsNoRouteFound(packetDropped)
attr title "packet drop: no route found, packetBytes"
vector 261 Hybrid5GSatNetwork.gnb1.ipv4.ip packetDropUndefined:vector(packetBytes) ETV
attr interpolationmode none
attr recordingmode vector(packetBytes)
attr source packetDropReasonIsUndefined(packetDropped)
attr title "packet drop: undefined, packetBytes"
vector 262 Hybrid5GSatNetwork.gnb1.ipv4.arp arpRequestSent:vector(packetBytes) ETV
attr recordingmode vector(packetBytes)
attr source arpRequestSent
attr title "ARP request sent, packetBytes"
vector 263 Hybrid5GSatNetwork.gnb1.ipv4.arp arpReplySent:vector(packetBytes) ETV
attr recordingmode vector(packetBytes)
attr source arpReplySent
attr title "ARP replies sent, packetBytes"
vector 264 Hybrid5GSatNetwork.gnb1.udp packetSent:vector(packetBytes) ETV
attr interpolationmode none
attr recordingmode vector(packetBytes)
attr source packetSent
attr title "packets sent, packetBytes"
vector 265 Hybrid5GSatNetwork.gnb1.udp packetReceived:vector(packetBytes) ETV
attr interpolationmode none
attr recordingmode vector(packetBytes)
attr source packetReceived
attr title "packets received, packetBytes"
vector 266 Hybrid5GSatNetwork.gnb1.udp passedUpPk:vector(count) ETV
attr interpolationmode none
attr recordingmode vector(count)
attr source packetSentToUpper
attr title "packets passed up, count"
vector 267 Hybrid5GSatNetwork.gnb1.udp droppedPkWrongPort:vector(count) ETV
attr interpolationmode none
attr recordingmode vector(count)
attr source packetDropReasonIsNoPortFound(packetDropped)
attr title "packets dropped (wrong port), count"
vector 268 Hybrid5GSatNetwork.gnb1.udp droppedPkBadChecksum:vector(count) ETV
attr interpolationmode none
attr recordingmode vector(count)
attr source packetDropReasonIsIncorrectlyReceived(packetDropped)
attr title "packets dropped (checksum error), count"
vector 269 Hybrid5GSatNetwork.gnb2.cellularNic.pdcpRrc receivedPacketFromUpperLayer:vector(packetBytes) ETV
attr interpolationmode none
attr recordingmode vector(packetBytes)
attr source receivedPacketFromUpperLayer
vector 270 Hybrid5GSatNetwork.gnb2.cellularNic.pdcpRrc receivedPacketFromLowerLayer:vector(packetBytes) ETV
attr interpolationmode none
attr recordingmode vector(packetBytes)
attr source receivedPacketFromLowerLayer
vector 271 Hybrid5GSatNetwork.gnb2.cellularNic.pdcpRrc sentPacketToUpperLayer:vector(packetBytes) ETV
attr interpolationmode none
attr recordingmode vector(packetBytes)
attr source sentPacketToUpperLayer
vector 272 Hybrid5GSatNetwork.gnb2.cellularNic.pdcpRrc sentPacketToLowerLayer:vector(packetBytes) ETV
attr interpolationmode none
attr recordingmode vector(packetBytes)
attr source sentPacketToLowerLayer
vector 273 Hybrid5GSatNetwork.gnb2.cellularNic.rlc.tm rlcPacketLossUl:vector ETV
attr recordingmode vector
attr source rlcPacketLossUl
attr title "rlc Packet Loss"
attr unit ""
vector 274 Hybrid5GSatNetwork.gnb2.cellularNic.rlc.tm rlcPacketLossDl:vector ETV
attr recordingmode vector
attr source rlcPacketLossDl
attr title "rlc Packet Loss"
attr unit ""
vector 275 Hybrid5GSatNetwork.gnb2.cellularNic.rlc.tm receivedPacketFromUpperLayer:vector(packetBytes) ETV
attr interpolationmode none
attr recordingmode vector(packetBytes)
attr source receivedPacketFromUpperLayer
vector 276 Hybrid5GSatNetwork.gnb2.cellularNic.rlc.tm receivedPacketFromLowerLayer:vector(packetBytes) ETV
attr interpolationmode none
attr recordingmode vector(packetBytes)
attr source receivedPacketFromLowerLayer
vector 277 Hybrid5GSatNetwork.gnb2.cellularNic.rlc.tm sentPacketToUpperLayer:vector(packetBytes) ETV
attr interpolationmode none
attr recordingmode vector(packetBytes)
attr source sentPacketToUpperLayer
vector 278 Hybrid5GSatNetwork.gnb2.cellularNic.rlc.tm sentPacketToLowerLayer:vector(packetBytes) ETV
attr interpolationmode none
attr recordingmode vector(packetBytes)
attr source sentPacketToLowerLayer
vector 279 Hybrid5GSatNetwork.gnb2.cellularNic.rlc.um rlcDelayDl:vector ETV
attr recordingmode vector
attr source rlcDelayDl
attr title "Delay at the rlc layer DL"
attr unit s
vector 280 Hybrid5GSatNetwork.gnb2.cellularNic.rlc.um rlcThroughputDl:vector ETV
attr recordingmode vector
attr source rlcThroughputDl
attr title "Throughput at the rlc layer DL"
attr unit Bps
vector 281 Hybrid5GSatNetwork.gnb2.cellularNic.rlc.um rlcDelayUl:vector ETV
attr recordingmode vector
attr source rlcDelayUl
attr title "Delay at the rlc layer UL"
attr unit s
vector 282 Hybrid5GSatNetwork.gnb2.cellularNic.rlc.um rlcThroughputUl:vector ETV
attr recordingmode vector
attr source rlcThroughputUl
attr title "Throughput at the rlc layer UL"
attr unit Bps
vector 283 Hybrid5GSatNetwork.gnb2.cellularNic.rlc.um rlcPacketLossUl:vector ETV
attr recordingmode vector
attr source rlcPacketLossUl
attr title "rlc Packet Loss"
attr unit ""
vector 284 Hybrid5GSatNetwork.gnb2.cellularNic.rlc.um rlcPacketLossDl:vector ETV
attr recordingmode vector
attr source rlcPacketLossDl
attr title "rlc Packet Loss"
attr unit ""
vector 285 Hybrid5GSatNetwork.gnb2.cellularNic.rlc.um rlcPacketLossTotal:vector ETV
attr recordingmode vector
attr source rlcPacketLossTotal
attr title "rlc Packet Loss"
attr unit ""
vector 286 Hybrid5GSatNetwork.gnb2.cellularNic.rlc.um rlcPduDelayDl:vector ETV
attr recordingmode vector
attr source rlcPduDelayDl
attr title "Delay at the rlc layer UL"
attr unit s
vector 287 Hybrid5GSatNetwork.gnb2.cellularNic.rlc.um rlcPduThroughputDl:vector ETV
attr recordingmode vector
attr source rlcPduThroughputDl
attr title "Throughput at the rlc layer DL"
attr unit Bps
vector 288 Hybrid5GSatNetwork.gnb2.cellularNic.rlc.um rlcPduDelayUl:vector ETV
attr recordingmode vector
attr source rlcPduDelayUl
attr title "Delay at the rlc layer UL"
attr unit s
vector 289 Hybrid5GSatNetwork.gnb2.cellularNic.rlc.um rlcPduThroughputUl:vector ETV
attr recordingmode vector
attr source rlcPduThroughputUl
attr title "Throughput at the rlc layer UL"
attr unit Bps
vector 290 Hybrid5GSatNetwork.gnb2.cellularNic.rlc.um rlcPduPacketLossUl:vector ETV
attr recordingmode vector
attr source rlcPduPacketLossUl
attr title "rlc Packet Loss"
attr unit ""
vector 291 Hybrid5GSatNetwork.gnb2.cellularNic.rlc.um rlcPduPacketLossDl:vector ETV
attr recordingmode vector
attr source rlcPduPacketLossDl
attr title "rlc Packet Loss"
attr unit ""
vector 292 Hybrid5GSatNetwork.gnb2.cellularNic.rlc.um receivedPacketFromUpperLayer:vector(packetBytes) ETV
attr interpolationmode none
attr recordingmode vector(packetBytes)
attr source receivedPacketFromUpperLayer
vector 293 Hybrid5GSatNetwork.gnb2.cellularNic.rlc.um receivedPacketFromLowerLayer:vector(packetBytes) ETV
attr interpolationmode none
attr recordingmode vector(packetBytes)
attr source receivedPacketFromLowerLayer
vector 294 Hybrid5GSatNetwork.gnb2.cellularNic.rlc.um sentPacketToUpperLayer:vector(packetBytes) ETV
attr interpolationmode none
attr recordingmode vector(packetBytes)
attr source sentPacketToUpperLayer
vector 295 Hybrid5GSatNetwork.gnb2.cellularNic.rlc.um sentPacketToLowerLayer:vector(packetBytes) ETV
attr interpolationmode none
attr recordingmode vector(packetBytes)
attr source sentPacketToLowerLayer
vector 296 Hybrid5GSatNetwork.gnb2.cellularNic.rlc.um rlcDelayD2D:vector ETV
attr recordingmode vector
attr source rlcDelayD2D
attr title "Delay at the rlc layer D2D"
attr unit s
vector 297 Hybrid5GSatNetwork.gnb2.cellularNic.rlc.um rlcThroughputD2D:vector ETV
attr recordingmode vector
attr source rlcThroughputD2D
attr title "Throughput at the rlc layer D2D"
attr unit Bps
vector 298 Hybrid5GSatNetwork.gnb2.cellularNic.rlc.um rlcPacketLossD2D:vector ETV
attr recordingmode vector
attr source rlcPacketLossD2D
attr title "rlc Packet Loss"
attr unit ""
vector 299 Hybrid5GSatNetwork.gnb2.cellularNic.rlc.um rlcCellPacketLossD2D:vector ETV
attr recordingmode vector
attr source rlcCellPacketLossD2D
attr title "rlc Cell Packet Loss"
attr unit ""
vector 300 Hybrid5GSatNetwork.gnb2.cellularNic.rlc.um rlcCellThroughputD2D:vector ETV
attr recordingmode vector
attr source rlcCellThroughputD2D
attr title "Cell Throughput at the rlc layer D2D"
attr unit Bps
vector 301 Hybrid5GSatNetwork.gnb2.cellularNic.rlc.um rlcPduDelayD2D:vector ETV
attr recordingmode vector
attr source rlcPduDelayD2D
attr title "Delay at the rlc layer D2D"
attr unit s
vector 302 Hybrid5GSatNetwork.gnb2.cellularNic.rlc.um rlcPduThroughputD2D:vector ETV
attr recordingmode vector
attr source rlcPduThroughputD2D
attr title "Throughput at the rlc layer D2D"
attr unit Bps
vector 303 Hybrid5GSatNetwork.gnb2.cellularNic.rlc.um rlcPduPacketLossD2D:vector ETV
attr recordingmode vector
attr source rlcPduPacketLossD2D
attr title "rlc Packet Loss"
attr unit ""
vector 304 Hybrid5GSatNetwork.gnb2.cellularNic.mac macDelayDl:vector ETV
attr recordingmode vector
attr source macDelayDl
attr title "Delay at the MAC layer UL"
attr unit s
vector 305 Hybrid5GSatNetwork.gnb2.cellularNic.mac macDelayUl:vector ETV
attr recordingmode vector
attr source macDelayUl
attr title "Delay at the MAC layer UL"
attr unit s
vector 306 Hybrid5GSatNetwork.gnb2.cellularNic.mac harqErrorRateUl:vector ETV
attr recordingmode vector
attr source harqErrorRateUl
attr title "Harq Error Rate Ul"
attr unit ""
vector 307 Hybrid5GSatNetwork.gnb2.cellularNic.mac harqErrorRateDl:vector ETV
attr recordingmode vector
attr source harqErrorRateDl
attr title "Harq Error Rate Dl"
attr unit ""
vector 308 Hybrid5GSatNetwork.gnb2.cellularNic.mac harqTxAttemptsDl:vector ETV
attr recordingmode vector
attr source harqTxAttemptsDl
attr title "Harq Tx Attempts Dl"
attr unit ""
vector 309 Hybrid5GSatNetwork.gnb2.cellularNic.mac harqTxAttemptsUl:vector ETV
attr recordingmode vector
attr source harqTxAttemptsUl
attr title "Harq Tx Attempts Ul"
attr unit ""
vector 310 Hybrid5GSatNetwork.gnb2.cellularNic.mac harqErrorRate_1st_Ul:vector ETV
attr recordingmode vector
attr source harqErrorRate_1st_Ul
attr title "Harq Error Rate Ul (1st tx)"
attr unit ""
vector 311 Hybrid5GSatNetwork.gnb2.cellularNic.mac harqErrorRate_1st_Dl:vector ETV
attr recordingmode vector
attr source harqErrorRate_1st_Dl
attr title "Harq Error Rate Dl (1st tx)"
attr unit ""
vector 312 Hybrid5GSatNetwork.gnb2.cellularNic.mac harqErrorRate_2nd_Ul:vector ETV
attr recordingmode vector
attr source harqErrorRate_2nd_Ul
attr title "Harq Error Rate Ul (2nd tx)"
attr unit ""
vector 313 Hybrid5GSatNetwork.gnb2.cellularNic.mac harqErrorRate_2nd_Dl:vector ETV
attr recordingmode vector
attr source harqErrorRate_2nd_Dl
attr title "Harq Error Rate Dl (2nd tx)"
attr unit ""
vector 314 Hybrid5GSatNetwork.gnb2.cellularNic.mac harqErrorRate_3rd_Ul:vector ETV
attr recordingmode vector
attr source harqErrorRate_3rd_Ul
attr title "Harq Error Rate Ul (3rd tx)"
attr unit ""
vector 315 Hybrid5GSatNetwork.gnb2.cellularNic.mac harqErrorRate_3rd_Dl:vector ETV
attr recordingmode vector
attr source harqErrorRate_3rd_Dl
attr title "Harq Error Rate Dl (3rd tx)"
attr unit ""
vector 316 Hybrid5GSatNetwork.gnb2.cellularNic.mac harqErrorRate_4th_Ul:vector ETV
attr recordingmode vector
attr source harqErrorRate_4th_Ul
attr title "Harq Error Rate Ul (4th tx)"
attr unit ""
vector 317 Hybrid5GSatNetwork.gnb2.cellularNic.mac harqErrorRate_4th_Dl:vector ETV
attr recordingmode vector
attr source harqErrorRate_4th_Dl
attr title "Harq Error Rate Dl (4th tx)"
attr unit ""
vector 318 Hybrid5GSatNetwork.gnb2.cellularNic.mac receivedPacketFromUpperLayer:vector(packetBytes) ETV
attr interpolationmode none
attr recordingmode vector(packetBytes)
attr source receivedPacketFromUpperLayer
vector 319 Hybrid5GSatNetwork.gnb2.cellularNic.mac receivedPacketFromLowerLayer:vector(packetBytes) ETV
attr interpolationmode none
attr recordingmode vector(packetBytes)
attr source receivedPacketFromLowerLayer
vector 320 Hybrid5GSatNetwork.gnb2.cellularNic.mac sentPacketToUpperLayer:vector(packetBytes) ETV
attr interpolationmode none
attr recordingmode vector(packetBytes)
attr source sentPacketToUpperLayer
vector 321 Hybrid5GSatNetwork.gnb2.cellularNic.mac sentPacketToLowerLayer:vector(packetBytes) ETV
attr interpolationmode none
attr recordingmode vector(packetBytes)
attr source sentPacketToLowerLayer
vector 322 Hybrid5GSatNetwork.gnb2.cellularNic.mac avgServedBlocksDl:vector ETV
attr recordingmode vector
attr source avgServedBlocksDl
attr title "Average number of allocated Resource Blocks in the Dl"
attr unit blocks
vector 323 Hybrid5GSatNetwork.gnb2.cellularNic.mac avgServedBlocksUl:vector ETV
attr recordingmode vector
attr source avgServedBlocksUl
attr title "Average number of allocated Resource Blocks in the Dl"
attr unit blocks
vector 324 Hybrid5GSatNetwork.gnb2.cellularNic.channelModel[0] rcvdSinrDl:vector ETV
attr recordingmode vector
attr source rcvdSinrDl
attr title "SINR measured at packet reception, DL"
attr unit dB
vector 325 Hybrid5GSatNetwork.gnb2.cellularNic.channelModel[0] rcvdSinrUl:vector ETV
attr recordingmode vector
attr source rcvdSinrUl
attr title "SINR measured at packet reception, UL"
attr unit dB
vector 326 Hybrid5GSatNetwork.gnb2.cellularNic.channelModel[0] rcvdSinrD2D:vector ETV
attr recordingmode vector
attr source rcvdSinrD2D
attr title "SINR measured at packet reception, D2D"
attr unit dB
[...]
9559	0	0	0
9559	0	0	0
9559	0	0	0
9559	0	0	0
9559	0	0	0
9580	0	0	0
9580	0	0	0
9580	0	0	0
9580	0	0	0
9580	0	0	0
9581	0	0	0
9581	0	0	0
9581	0	0	0
9581	0	0	0
9581	0	0	0
9602	0	0	0
9602	0	0	0
9602	0	0	0
9602	0	0	0
9602	0	0	0
9603	0	0	0
9603	0	0	0
9603	0	0	0
9603	0	0	0
9603	0	0	0
9624	0	0	0
9624	0	0	0
9624	0	0	0
9624	0	0	0
9624	0	0	0
9625	0	0	0
9625	0	0	0
9625	0	0	0
9625	0	0	0
9625	0	0	0
9646	0	0	0
9646	0	0	0
9646	0	0	0
9646	0	0	0
9646	0	0	0
9647	0	0	0
9647	0	0	0
9647	0	0	0
9647	0	0	0
9647	0	0	0
9668	0	0	0
9668	0	0	0
9668	0	0	0
9668	0	0	0
9668	0	0	0
9669	0	0	0
9669	0	0	0
9669	0	0	0
9669	0	0	0
9669	0	0	0
9690	0	0	0
9690	0	0	0
9690	0	0	0
9690	0	0	0
9690	0	0	0
9691	0	0	0
9691	0	0	0
9691	0	0	0
9691	0	0	0
9691	0	0	0
9712	0	0	0
9712	0	0	0
9712	0	0	0
9712	0	0	0
9712	0	0	0
9713	0	0	0
9713	0	0	0
9713	0	0	0
9713	0	0	0
9713	0	0	0
9734	0	0	0
9734	0	0	0
9734	0	0	0
9734	0	0	0
9734	0	0	0
9735	0	0	0
9735	0	0	0
9735	0	0	0
9735	0	0	0
9735	0	0	0
9756	0	0	0
9756	0	0	0
9756	0	0	0
9756	0	0	0
9756	0	0	0
9757	0	0	0
9757	0	0	0
9757	0	0	0
9757	0	0	0
9757	0	0	0
9778	0	0	0
9778	0	0	0
9778	0	0	0
9778	0	0	0
9778	0	0	0
9779	0	0	0
9779	0	0	0
9779	0	0	0
9779	0	0	0
9779	0	0	0
9800	0	0	0
9800	0	0	0
9800	0	0	0
9800	0	0	0
9800	0	0	0
9801	0	0	0
9801	0	0	0
9801	0	0	0
9801	0	0	0
9801	0	0	0
9822	0	0	0
9822	0	0	0
9822	0	0	0
9822	0	0	0
9822	0	0	0
9823	0	0	0
9823	0	0	0
9823	0	0	0
9823	0	0	0
9823	0	0	0
9844	0	0	0
9844	0	0	0
9844	0	0	0
9844	0	0	0
9844	0	0	0
9845	0	0	0
9845	0	0	0
9845	0	0	0
9845	0	0	0
9845	0	0	0
9866	0	0	0
9866	0	0	0
9866	0	0	0
9866	0	0	0
9866	0	0	0
9867	0	0	0
9867	0	0	0
9867	0	0	0
9867	0	0	0
9867	0	0	0
9888	0	0	0
9888	0	0	0
9888	0	0	0
9888	0	0	0
9888	0	0	0
9889	0	0	0
9889	0	0	0
9889	0	0	0
9889	0	0	0
9889	0	0	0
9954	0	0	0
9954	0	0	0
9954	0	0	0
9954	0	0	0
9954	0	0	0
9955	0	0	0
9955	0	0	0
9955	0	0	0
9955	0	0	0
9955	0	0	0
9976	0	0	0
9976	0	0	0
9976	0	0	0
9976	0	0	0
9976	0	0	0
9977	0	0	0
9977	0	0	0
9977	0	0	0
9977	0	0	0
9977	0	0	0
9998	0	0	0
9998	0	0	0
9998	0	0	0
9998	0	0	0
9998	0	0	0
9999	0	0	0
9999	0	0	0
9999	0	0	0
9999	0	0	0
9999	0	0	0
10024	0	0	0
10024	0	0	0
10024	0	0	0
10024	0	0	0
10024	0	0	0
10025	0	0	0
10025	0	0	0
10025	0	0	0
10025	0	0	0
10025	0	0	0
10035	0	0	0
10044	0	0	0
10044	0	0	0
10044	0	0	0
10044	0	0	0
10044	0	0	0
10045	0	0	0
10045	0	0	0
10045	0	0	0
10045	0	0	0
10045	0	0	0
10055	0	0	0
10064	0	0	0
10064	0	0	0
10064	0	0	0
10064	0	0	0
10064	0	0	0
10065	0	0	0
10065	0	0	0
10065	0	0	0
10065	0	0	0
10065	0	0	0
10075	0	0	0
10084	0	0	0
10084	0	0	0
10084	0	0	0
10084	0	0	0
10084	0	0	0
10085	0	0	0
10085	0	0	0
10085	0	0	0
10085	0	0	0
10085	0	0	0
10095	0	0	0
10104	0	0	0
10104	0	0	0
10104	0	0	0
10104	0	0	0
10104	0	0	0
10105	0	0	0
10105	0	0	0
10105	0	0	0
10105	0	0	0
10105	0	0	0
10115	0	0	0
10124	0	0	0
10124	0	0	0
10124	0	0	0
10124	0	0	0
10124	0	0	0
10125	0	0	0
10125	0	0	0
10125	0	0	0
10125	0	0	0
10125	0	0	0
10135	0	0	0
10144	0	0	0
10144	0	0	0
10144	0	0	0
10144	0	0	0
10144	0	0	0
10145	0	0	0
10145	0	0	0
10145	0	0	0
10145	0	0	0
10145	0	0	0
10155	0	0	0
10174	0	0	0
10175	0	0	0
10176	0	0	0
10185	0	0	0
10185	0	0	0
10185	0	0	0
10185	0	0	0
10185	0	0	0
10186	0	0	0
10186	0	0	0
10186	0	0	0
10186	0	0	0
10186	0	0	0
10196	0	0	0
10205	0	0	0
10205	0	0	0
10205	0	0	0
10205	0	0	0
10205	0	0	0
10206	0	0	0
10206	0	0	0
10206	0	0	0
10206	0	0	0
10206	0	0	0
10216	0	0	0
10225	0	0	0
10225	0	0	0
10225	0	0	0
10225	0	0	0
10225	0	0	0
10226	0	0	0
10226	0	0	0
10226	0	0	0
10226	0	0	0
10226	0	0	0
10236	0	0	0
10245	0	0	0
10245	0	0	0
10245	0	0	0
10245	0	0	0
10245	0	0	0
10246	0	0	0
10246	0	0	0
10246	0	0	0
10246	0	0	0
10246	0	0	0
10256	0	0	0
10265	0	0	0
10265	0	0	0
10265	0	0	0
10265	0	0	0
10265	0	0	0
10266	0	0	0
10266	0	0	0
10266	0	0	0
10266	0	0	0
10266	0	0	0
10276	0	0	0
10285	0	0	0
10285	0	0	0
10285	0	0	0
10285	0	0	0
10285	0	0	0
10286	0	0	0
10286	0	0	0
10286	0	0	0
10286	0	0	0
10286	0	0	0
10296	0	0	0
10305	0	0	0
10305	0	0	0
10305	0	0	0
10305	0	0	0
10305	0	0	0
10306	0	0	0
10306	0	0	0
10306	0	0	0
10306	0	0	0
10306	0	0	0
10316	0	0	0
10335	0	0	0
10336	0	0	0
10337	0	0	0
10346	0	0	0
10346	0	0	0
10346	0	0	0
10346	0	0	0
10346	0	0	0
10347	0	0	0
10347	0	0	0
10347	0	0	0
10347	0	0	0
10347	0	0	0
10357	0	0	0
10366	0	0	0
10366	0	0	0
10366	0	0	0
10366	0	0	0
10366	0	0	0
10367	0	0	0
10367	0	0	0
10367	0	0	0
10367	0	0	0
10367	0	0	0
10377	0	0	0
10386	0	0	0
10386	0	0	0
10386	0	0	0
10386	0	0	0
10386	0	0	0
10387	0	0	0
10387	0	0	0
10387	0	0	0
10387	0	0	0
10387	0	0	0
10397	0	0	0
10406	0	0	0
10406	0	0	0
10406	0	0	0
10406	0	0	0
10406	0	0	0
10407	0	0	0
10407	0	0	0
10407	0	0	0
10407	0	0	0
10407	0	0	0
10417	0	0	0
10426	0	0	0
10426	0	0	0
10426	0	0	0
10426	0	0	0
10426	0	0	0
10427	0	0	0
10427	0	0	0
10427	0	0	0
10427	0	0	0
10427	0	0	0
10437	0	0	0
10446	0	0	0
10446	0	0	0
10446	0	0	0
10446	0	0	0
10446	0	0	0
10447	0	0	0
10447	0	0	0
10447	0	0	0
10447	0	0	0
10447	0	0	0
10457	0	0	0
10466	0	0	0
10466	0	0	0
10466	0	0	0
10466	0	0	0
10466	0	0	0
10467	0	0	0
10467	0	0	0
10467	0	0	0
10467	0	0	0
10467	0	0	0
10477	0	0	0
10496	0	0	0
10497	0	0	0
10498	0	0	0
10507	0	0	0
10507	0	0	0
10507	0	0	0
10507	0	0	0
10507	0	0	0
10508	0	0	0
10508	0	0	0
10508	0	0	0
10508	0	0	0
10508	0	0	0
10518	0	0	0
10527	0	0	0
10527	0	0	0
10527	0	0	0
10527	0	0	0
10527	0	0	0
10528	0	0	0
10528	0	0	0
10528	0	0	0
10528	0	0	0
10528	0	0	0
10538	0	0	0
10547	0	0	0
10547	0	0	0
10547	0	0	0
10547	0	0	0
10547	0	0	0
10548	0	0	0
10548	0	0	0
10548	0	0	0
10548	0	0	0
10548	0	0	0
10558	0	0	0
10577	0	0	0
10578	0	0	0
10579	0	0	0
10584	0	0	0
10584	0	0	0
10584	0	0	0
10584	0	0	0
10584	0	0	0
10585	0	0	0
10585	0	0	0
10585	0	0	0
10585	0	0	0
10585	0	0	0
10595	0	0	0
10604	0	0	0
10604	0	0	0
10604	0	0	0
10604	0	0	0
10604	0	0	0
10605	0	0	0
10605	0	0	0
10605	0	0	0
10605	0	0	0
10605	0	0	0
10615	0	0	0
10624	0	0	0
10624	0	0	0
10624	0	0	0
10624	0	0	0
10624	0	0	0
10625	0	0	0
10625	0	0	0
10625	0	0	0
10625	0	0	0
10625	0	0	0
10635	0	0	0
10654	0	0	0
10655	0	0	0
10656	0	0	0
10661	0	0	0
10661	0	0	0
10661	0	0	0
10661	0	0	0
10661	0	0	0
10662	0	0	0
10662	0	0	0
10662	0	0	0
10662	0	0	0
10662	0	0	0
10672	0	0	0
10681	0	0	0
10681	0	0	0
10681	0	0	0
10681	0	0	0
10681	0	0	0
10682	0	0	0
10682	0	0	0
10682	0	0	0
10682	0	0	0
10682	0	0	0
10692	0	0	0
10701	0	0	0
10701	0	0	0
10701	0	0	0
10701	0	0	0
10701	0	0	0
10702	0	0	0
10702	0	0	0
10702	0	0	0
10702	0	0	0
10702	0	0	0
10712	0	0	0
10731	0	0	0
10732	0	0	0
10733	0	0	0
10738	0	0	0
10738	0	0	0
10738	0	0	0
10738	0	0	0
10738	0	0	0
10739	0	0	0
10739	0	0	0
10739	0	0	0
10739	0	0	0
10739	0	0	0
10749	0	0	0
10758	0	0	0
10758	0	0	0
10758	0	0	0
10758	0	0	0
10758	0	0	0
10759	0	0	0
10759	0	0	0
10759	0	0	0
10759	0	0	0
10759	0	0	0
10769	0	0	0
10778	0	0	0
10778	0	0	0
10778	0	0	0
10778	0	0	0
10778	0	0	0
10779	0	0	0
10779	0	0	0
10779	0	0	0
10779	0	0	0
10779	0	0	0
10789	0	0	0
10808	0	0	0
10809	0	0	0
10810	0	0	0
10815	0	0	0
10815	0	0	0
10815	0	0	0
10815	0	0	0
10815	0	0	0
10816	0	0	0
10816	0	0	0
10816	0	0	0
10816	0	0	0
10816	0	0	0
10826	0	0	0
10835	0	0	0
10835	0	0	0
10835	0	0	0
10835	0	0	0
10835	0	0	0
10836	0	0	0
10836	0	0	0
10836	0	0	0
10836	0	0	0
10836	0	0	0
10846	0	0	0
10855	0	0	0
10855	0	0	0
10855	0	0	0
10855	0	0	0
10855	0	0	0
10856	0	0	0
10856	0	0	0
10856	0	0	0
10856	0	0	0
10856	0	0	0
10866	0	0	0
10885	0	0	0
10886	0	0	0
10887	0	0	0
10892	0	0	0
10892	0	0	0
10892	0	0	0
10892	0	0	0
10892	0	0	0
10893	0	0	0
10893	0	0	0
10893	0	0	0
10893	0	0	0
10893	0	0	0
10903	0	0	0
10912	0	0	0
10912	0	0	0
10912	0	0	0
10912	0	0	0
10912	0	0	0
10913	0	0	0
10913	0	0	0
10913	0	0	0
10913	0	0	0
10913	0	0	0
10923	0	0	0
10932	0	0	0
10932	0	0	0
10932	0	0	0
10932	0	0	0
10932	0	0	0
10933	0	0	0
10933	0	0	0
10933	0	0	0
10933	0	0	0
10933	0	0	0
10943	0	0	0
10962	0	0	0
10963	0	0	0
10964	0	0	0
8	2264	0.072	0
10	2264	0.072	0
36	2264	0.072	0
38	2264	0.072	0
65	2264	0.072	0
67	2264	0.072	0
85	2264	0.072	0
87	2264	0.072	0
105	2264	0.072	0
107	2264	0.072	0
133	2264	0.072	0
135	2264	0.072	0
220	2264	0.072	0
222	2264	0.072	0
240	2264	0.072	0
242	2264	0.072	0
335	2264	0.072	0
337	2264	0.072	0
355	2264	0.072	0
357	2264	0.072	0
543	2264	0.072	0
706	2264	0.072	0
869	2264	0.072	0
1032	2264	0.072	0
1195	2264	0.072	0
1358	2264	0.072	0
1521	2264	0.072	0
1684	2264	0.072	0
1847	2264	0.072	0
2010	2264	0.072	0
2025	2264	0.072	0
2027	2264	0.072	0
2057	2264	0.072	0
2072	2264	0.072	0
2074	2264	0.072	0
2104	2264	0.072	0
2119	2264	0.072	0
2121	2264	0.072	0
2151	2264	0.072	0
2166	2264	0.072	0
2168	2264	0.072	0
2198	2264	0.072	0
2213	2264	0.072	0
2215	2264	0.072	0
2245	2264	0.072	0
2260	2264	0.072	0
2262	2264	0.072	0
2292	2264	0.072	0
2307	2264	0.072	0
2309	2264	0.072	0
2339	2264	0.072	0
2354	2264	0.072	0
2356	2264	0.072	0
2386	2264	0.072	0
2401	2264	0.072	0
2403	2264	0.072	0
2433	2264	0.072	0
2448	2264	0.072	0
2450	2264	0.072	0
2480	2264	0.072	0
2495	2264	0.072	0
2497	2264	0.072	0
2527	2264	0.072	0
2542	2264	0.072	0
2544	2264	0.072	0
2574	2264	0.072	0
2589	2264	0.072	0
2591	2264	0.072	0
2621	2264	0.072	0
2636	2264	0.072	0
2638	2264	0.072	0
2668	2264	0.072	0
2683	2264	0.072	0
2685	2264	0.072	0
2715	2264	0.072	0
2730	2264	0.072	0
2732	2264	0.072	0
2762	2264	0.072	0
2777	2264	0.072	0
2779	2264	0.072	0
2809	2264	0.072	0
2824	2264	0.072	0
2826	2264	0.072	0
2856	2264	0.072	0
2871	2264	0.072	0
2873	2264	0.072	0
2903	2264	0.072	0
2918	2264	0.072	0
2920	2264	0.072	0
2950	2264	0.072	0
2965	2264	0.072	0
2967	2264	0.072	0
2997	2264	0.072	0
3012	2264	0.072	0
3014	2264	0.072	0
3044	2264	0.072	0
3059	2264	0.072	0
3061	2264	0.072	0
3091	2264	0.072	0
3106	2264	0.072	0
3108	2264	0.072	0
3138	2264	0.072	0
3153	2264	0.072	0
3155	2264	0.072	0
3185	2264	0.072	0
3200	2264	0.072	0
3202	2264	0.072	0
3232	2264	0.072	0
3247	2264	0.072	0
3249	2264	0.072	0
3279	2264	0.072	0
3294	2264	0.072	0
3296	2264	0.072	0
3326	2264	0.072	0
3341	2264	0.072	0
3343	2264	0.072	0
3373	2264	0.072	0
3388	2264	0.072	0
3390	2264	0.072	0
3420	2264	0.072	0
3435	2264	0.072	0
3437	2264	0.072	0
3467	2264	0.072	0
3482	2264	0.072	0
3484	2264	0.072	0
3514	2264	0.072	0
3529	2264	0.072	0
3531	2264	0.072	0
3561	2264	0.072	0
3576	2264	0.072	0
3578	2264	0.072	0
3608	2264	0.072	0
3623	2264	0.072	0
3625	2264	0.072	0
3655	2264	0.072	0
3670	2264	0.072	0
3672	2264	0.072	0
3702	2264	0.072	0
3717	2264	0.072	0
3719	2264	0.072	0
3749	2264	0.072	0
3764	2264	0.072	0
3766	2264	0.072	0
3796	2264	0.072	0
3811	2264	0.072	0
3813	2264	0.072	0
3843	2264	0.072	0
3858	2264	0.072	0
3860	2264	0.072	0
3890	2264	0.072	0
3905	2264	0.072	0
3907	2264	0.072	0
3937	2264	0.072	0
3952	2264	0.072	0
3954	2264	0.072	0
3984	2264	0.072	0
3999	2264	0.072	0
4001	2264	0.072	0
4031	2264	0.072	0
4046	2264	0.072	0
4048	2264	0.072	0
4078	2264	0.072	0
4093	2264	0.072	0
4095	2264	0.072	0
4125	2264	0.072	0
4140	2264	0.072	0
4142	2264	0.072	0
4172	2264	0.072	0
4187	2264	0.072	0
4189	2264	0.072	0
4219	2264	0.072	0
4234	2264	0.072	0
4236	2264	0.072	0
4266	2264	0.072	0
4281	2264	0.072	0
4283	2264	0.072	0
4313	2264	0.072	0
4328	2264	0.072	0
4330	2264	0.072	0
4360	2264	0.072	0
4375	2264	0.072	0
4377	2264	0.072	0
4407	2264	0.072	0
4422	2264	0.072	0
4424	2264	0.072	0
4454	2264	0.072	0
4469	2264	0.072	0
4471	2264	0.072	0
4501	2264	0.072	0
4516	2264	0.072	0
4518	2264	0.072	0
4548	2264	0.072	0
4563	2264	0.072	0
4565	2264	0.072	0
4595	2264	0.072	0
4610	2264	0.072	0
4612	2264	0.072	0
4642	2264	0.072	0
4657	2264	0.072	0
4659	2264	0.072	0
4689	2264	0.072	0
4704	2264	0.072	0
4706	2264	0.072	0
4736	2264	0.072	0
4751	2264	0.072	0
4753	2264	0.072	0
4783	2264	0.072	0
4798	2264	0.072	0
4800	2264	0.072	0
4830	2264	0.072	0
4845	2264	0.072	0
4847	2264	0.072	0
4877	2264	0.072	0
4892	2264	0.072	0
4894	2264	0.072	0
4924	2264	0.072	0
4939	2264	0.072	0
4941	2264	0.072	0
4971	2264	0.072	0
4986	2264	0.072	0
4988	2264	0.072	0
5018	2264	0.072	0
5033	2264	0.072	0
5035	2264	0.072	0
5065	2264	0.072	0
5080	2264	0.072	0
5082	2264	0.072	0
5112	2264	0.072	0
5127	2264	0.072	0
5129	2264	0.072	0
5159	2264	0.072	0
5174	2264	0.072	0
5176	2264	0.072	0
5206	2264	0.072	0
5221	2264	0.072	0
5223	2264	0.072	0
5253	2264	0.072	0
5268	2264	0.072	0
5270	2264	0.072	0
5300	2264	0.072	0
5315	2264	0.072	0
5317	2264	0.072	0
5347	2264	0.072	0
5362	2264	0.072	0
5364	2264	0.072	0
5394	2264	0.072	0
5409	2264	0.072	0
5411	2264	0.072	0
5441	2264	0.072	0
5456	2264	0.072	0
5458	2264	0.072	0
5488	2264	0.072	0
5503	2264	0.072	0
5505	2264	0.072	0
5535	2264	0.072	0
5550	2264	0.072	0
5552	2264	0.072	0
5582	2264	0.072	0
5597	2264	0.072	0
5599	2264	0.072	0
5629	2264	0.072	0
5644	2264	0.072	0
5646	2264	0.072	0
5676	2264	0.072	0
5691	2264	0.072	0
5693	2264	0.072	0
5723	2264	0.072	0
5738	2264	0.072	0
5740	2264	0.072	0
5770	2264	0.072	0
5785	2264	0.072	0
5787	2264	0.072	0
5817	2264	0.072	0
5832	2264	0.072	0
5834	2264	0.072	0
5864	2264	0.072	0
5879	2264	0.072	0
5881	2264	0.072	0
5911	2264	0.072	0
5926	2264	0.072	0
5928	2264	0.072	0
5958	2264	0.072	0
5973	2264	0.072	0
5975	2264	0.072	0
6005	2264	0.072	0
6020	2264	0.072	0
6022	2264	0.072	0
6052	2264	0.072	0
6067	2264	0.072	0
6069	2264	0.072	0
6099	2264	0.072	0
6114	2264	0.072	0
6116	2264	0.072	0
6146	2264	0.072	0
6161	2264	0.072	0
6163	2264	0.072	0
6193	2264	0.072	0
6208	2264	0.072	0
6210	2264	0.072	0
6240	2264	0.072	0
6255	2264	0.072	0
6257	2264	0.072	0
6287	2264	0.072	0
6302	2264	0.072	0
6304	2264	0.072	0
6334	2264	0.072	0
6349	2264	0.072	0
6351	2264	0.072	0
6381	2264	0.072	0
6396	2264	0.072	0
6398	2264	0.072	0
6428	2264	0.072	0
6443	2264	0.072	0
6445	2264	0.072	0
6475	2264	0.072	0
6490	2264	0.072	0
6492	2264	0.072	0
6522	2264	0.072	0
6537	2264	0.072	0
6539	2264	0.072	0
6569	2264	0.072	0
6584	2264	0.072	0
6586	2264	0.072	0
6616	2264	0.072	0
6631	2264	0.072	0
6633	2264	0.072	0
6663	2264	0.072	0
6678	2264	0.072	0
6680	2264	0.072	0
6710	2264	0.072	0
6725	2264	0.072	0
6727	2264	0.072	0
6757	2264	0.072	0
6772	2264	0.072	0
6774	2264	0.072	0
6804	2264	0.072	0
6819	2264	0.072	0
6821	2264	0.072	0
6851	2264	0.072	0
6866	2264	0.072	0
6868	2264	0.072	0
6898	2264	0.072	0
6913	2264	0.072	0
6915	2264	0.072	0
6945	2264	0.072	0
6960	2264	0.072	0
6962	2264	0.072	0
6992	2264	0.072	0
7007	2264	0.072	0
7009	2264	0.072	0
7039	2264	0.072	0
7054	2264	0.072	0
7056	2264	0.072	0
7086	2264	0.072	0
7101	2264	0.072	0
7103	2264	0.072	0
7133	2264	0.072	0
7148	2264	0.072	0
7150	2264	0.072	0
7180	2264	0.072	0
7195	2264	0.072	0
7197	2264	0.072	0
7215	2264	0.072	0
7217	2264	0.072	0
7235	2264	0.072	0
7237	2264	0.072	0
7255	2264	0.072	0
7257	2264	0.072	0
7292	2264	0.072	0
7294	2264	0.072	0
7312	2264	0.072	0
7314	2264	0.072	0
7332	2264	0.072	0
7334	2264	0.072	0
7375	2264	0.072	0
7395	2264	0.072	0
7406	2264	0.072	0
7408	2264	0.072	0
7428	2264	0.072	0
7430	2264	0.072	0
7450	2264	0.072	0
7452	2264	0.072	0
7472	2264	0.072	0
7474	2264	0.072	0
7494	2264	0.072	0
7496	2264	0.072	0
7516	2264	0.072	0
7518	2264	0.072	0
7538	2264	0.072	0
7540	2264	0.072	0
7560	2264	0.072	0
7562	2264	0.072	0
7582	2264	0.072	0
7584	2264	0.072	0
7604	2264	0.072	0
7606	2264	0.072	0
7626	2264	0.072	0
7628	2264	0.072	0
7648	2264	0.072	0
7650	2264	0.072	0
7670	2264	0.072	0
7672	2264	0.072	0
7692	2264	0.072	0
7694	2264	0.072	0
7714	2264	0.072	0
7716	2264	0.072	0
7736	2264	0.072	0
7738	2264	0.072	0
7758	2264	0.072	0
7760	2264	0.072	0
7780	2264	0.072	0
7782	2264	0.072	0
7802	2264	0.072	0
7804	2264	0.072	0
7824	2264	0.072	0
7826	2264	0.072	0
7846	2264	0.072	0
7848	2264	0.072	0
7868	2264	0.072	0
7870	2264	0.072	0
7890	2264	0.072	0
7892	2264	0.072	0
7912	2264	0.072	0
7914	2264	0.072	0
7934	2264	0.072	0
7936	2264	0.072	0
7956	2264	0.072	0
7958	2264	0.072	0
7978	2264	0.072	0
7980	2264	0.072	0
8000	2264	0.072	0
8002	2264	0.072	0
8022	2264	0.072	0
8024	2264	0.072	0
8044	2264	0.072	0
8046	2264	0.072	0
8066	2264	0.072	0
8068	2264	0.072	0
8088	2264	0.072	0
8090	2264	0.072	0
8110	2264	0.072	0
8112	2264	0.072	0
8132	2264	0.072	0
8134	2264	0.072	0
8154	2264	0.072	0
8156	2264	0.072	0
8176	2264	0.072	0
8178	2264	0.072	0
8198	2264	0.072	0
8200	2264	0.072	0
8220	2264	0.072	0
8222	2264	0.072	0
8242	2264	0.072	0
8244	2264	0.072	0
8264	2264	0.072	0
8266	2264	0.072	0
8286	2264	0.072	0
8288	2264	0.072	0
8308	2264	0.072	0
8310	2264	0.072	0
8330	2264	0.072	0
8332	2264	0.072	0
8352	2264	0.072	0
8354	2264	0.072	0
8374	2264	0.072	0
8376	2264	0.072	0
8396	2264	0.072	0
8398	2264	0.072	0
8418	2264	0.072	0
8420	2264	0.072	0
8440	2264	0.072	0
8442	2264	0.072	0
8462	2264	0.072	0
8464	2264	0.072	0
8484	2264	0.072	0
8486	2264	0.072	0
8506	2264	0.072	0
8508	2264	0.072	0
8528	2264	0.072	0
8530	2264	0.072	0
8550	2264	0.072	0
8552	2264	0.072	0
8572	2264	0.072	0
8574	2264	0.072	0
8594	2264	0.072	0
8596	2264	0.072	0
8616	2264	0.072	0
8618	2264	0.072	0
8638	2264	0.072	0
8640	2264	0.072	0
8660	2264	0.072	0
8662	2264	0.072	0
8682	2264	0.072	0
8684	2264	0.072	0
8704	2264	0.072	0
8706	2264	0.072	0
8726	2264	0.072	0
8728	2264	0.072	0
8761	2264	0.072	0
8781	2264	0.072	0
8792	2264	0.072	0
8794	2264	0.072	0
8814	2264	0.072	0
8816	2264	0.072	0
8836	2264	0.072	0
8838	2264	0.072	0
8858	2264	0.072	0
8860	2264	0.072	0
8880	2264	0.072	0
8882	2264	0.072	0
8902	2264	0.072	0
8904	2264	0.072	0
8924	2264	0.072	0
8926	2264	0.072	0
8946	2264	0.072	0
8948	2264	0.072	0
8968	2264	0.072	0
8970	2264	0.072	0
8990	2264	0.072	0
8992	2264	0.072	0
9012	2264	0.072	0
9014	2264	0.072	0
9034	2264	0.072	0
9036	2264	0.072	0
9056	2264	0.072	0
9058	2264	0.072	0
9078	2264	0.072	0
9080	2264	0.072	0
9100	2264	0.072	0
9102	2264	0.072	0
9122	2264	0.072	0
9124	2264	0.072	0
9144	2264	0.072	0
9146	2264	0.072	0
9166	2264	0.072	0
9168	2264	0.072	0
9188	2264	0.072	0
9190	2264	0.072	0
9210	2264	0.072	0
9212	2264	0.072	0
9232	2264	0.072	0
9234	2264	0.072	0
9254	2264	0.072	0
9256	2264	0.072	0
9276	2264	0.072	0
9278	2264	0.072	0
9298	2264	0.072	0
9300	2264	0.072	0
9320	2264	0.072	0
9322	2264	0.072	0
9342	2264	0.072	0
9344	2264	0.072	0
9364	2264	0.072	0
9366	2264	0.072	0
9386	2264	0.072	0
9388	2264	0.072	0
9408	2264	0.072	0
9410	2264	0.072	0
9430	2264	0.072	0
9432	2264	0.072	0
9452	2264	0.072	0
9454	2264	0.072	0
9474	2264	0.072	0
9476	2264	0.072	0
9496	2264	0.072	0
9498	2264	0.072	0
9518	2264	0.072	0
9520	2264	0.072	0
9540	2264	0.072	0
9542	2264	0.072	0
9562	2264	0.072	0
9564	2264	0.072	0
9584	2264	0.072	0
9586	2264	0.072	0
9606	2264	0.072	0
9608	2264	0.072	0
9628	2264	0.072	0
9630	2264	0.072	0
9650	2264	0.072	0
9652	2264	0.072	0
9672	2264	0.072	0
9674	2264	0.072	0
9694	2264	0.072	0
9696	2264	0.072	0
9716	2264	0.072	0
9718	2264	0.072	0
9738	2264	0.072	0
9740	2264	0.072	0
9760	2264	0.072	0
9762	2264	0.072	0
9782	2264	0.072	0
9784	2264	0.072	0
9804	2264	0.072	0
9806	2264	0.072	0
9826	2264	0.072	0
9828	2264	0.072	0
9848	2264	0.072	0
9850	2264	0.072	0
9870	2264	0.072	0
9872	2264	0.072	0
9892	2264	0.072	0
9894	2264	0.072	0
9927	2264	0.072	0
9947	2264	0.072	0
9958	2264	0.072	0
9960	2264	0.072	0
9980	2264	0.072	0
9982	2264	0.072	0
10002	2264	0.072	0
10004	2264	0.072	0
10028	2264	0.072	0
10030	2264	0.072	0
10048	2264	0.072	0
10050	2264	0.072	0
10068	2264	0.072	0
10070	2264	0.072	0
10088	2264	0.072	0
10090	2264	0.072	0
10108	2264	0.072	0
10110	2264	0.072	0
10128	2264	0.072	0
10130	2264	0.072	0
10148	2264	0.072	0
10150	2264	0.072	0
10178	2264	0.072	0
10189	2264	0.072	0
10191	2264	0.072	0
10209	2264	0.072	0
10211	2264	0.072	0
10229	2264	0.072	0
10231	2264	0.072	0
10249	2264	0.072	0
10251	2264	0.072	0
10269	2264	0.072	0
10271	2264	0.072	0
10289	2264	0.072	0
10291	2264	0.072	0
10309	2264	0.072	0
10311	2264	0.072	0
10339	2264	0.072	0
10350	2264	0.072	0
10352	2264	0.072	0
10370	2264	0.072	0
10372	2264	0.072	0
10390	2264	0.072	0
10392	2264	0.072	0
10410	2264	0.072	0
10412	2264	0.072	0
10430	2264	0.072	0
10432	2264	0.072	0
10450	2264	0.072	0
10452	2264	0.072	0
10470	2264	0.072	0
10472	2264	0.072	0
10500	2264	0.072	0
10511	2264	0.072	0
10513	2264	0.072	0
10531	2264	0.072	0
10533	2264	0.072	0
10551	2264	0.072	0
10553	2264	0.072	0
10588	2264	0.072	0
10590	2264	0.072	0
10608	2264	0.072	0
10610	2264	0.072	0
10628	2264	0.072	0
10630	2264	0.072	0
10665	2264	0.072	0
10667	2264	0.072	0
10685	2264	0.072	0
10687	2264	0.072	0
10705	2264	0.072	0
10707	2264	0.072	0
10742	2264	0.072	0
10744	2264	0.072	0
10762	2264	0.072	0
10764	2264	0.072	0
10782	2264	0.072	0
10784	2264	0.072	0
10819	2264	0.072	0
10821	2264	0.072	0
10839	2264	0.072	0
10841	2264	0.072	0
10859	2264	0.072	0
10861	2264	0.072	0
10896	2264	0.072	0
10898	2264	0.072	0
10916	2264	0.072	0
10918	2264	0.072	0
10936	2264	0.072	0
10938	2264	0.072	0

