file 2755703 1751557016                                         
version 3
run General-0-20250703-15:33:45-9990
attr configname General
attr datetime 20250703-15:33:45
attr datetimef 20250703-153345
attr experiment General
attr inifile omnetpp.ini
attr iterationvars ""
attr iterationvarsd ""
attr iterationvarsf ""
attr measurement ""
attr network Hybrid5GSatNetwork
attr processid 9990
attr repetition 0
attr replication #0
attr resultdir results
attr runnumber 0
attr seedset 0
config image-path ../../images:../../../inet4.5/images
config network Hybrid5GSatNetwork
config description "Ground–air–space test bed with mixed 5 G and classic INET nodes"
config sim-time-limit 120s
config seed-set 0
config **.scalar-recording true
config **.vector-recording true
config **.mobility.constraintAreaMaxX 1000m
config **.mobility.constraintAreaMaxY 750m
config **.mobility.constraintAreaMinX 0m
config **.mobility.constraintAreaMinY 250m
config **.mobility.constraintAreaMinZ 0m
config **.mobility.constraintAreaMaxZ 20000m
config **.mobility.initFromDisplayString false
config *.configurator.addDefaultRoutes true
config *.configurator.addStaticRoutes false
config *.router[*].hasOspfRouting true
config *.aircraft[*].hasOspfRouting true
config *.sat[*].hasOspfRouting true
config *.ue[*].mobility.typename LinearMobility
config *.ue[*].mobility.initialX uniform(0m,1000m)
config *.ue[*].mobility.initialY uniform(250m,750m)
config *.ue[*].mobility.speed uniform(3mps,15mps)
config *.aircraft[*].mobility.typename LinearMobility
config *.aircraft[*].mobility.initialZ 10000m
config *.aircraft[*].mobility.speed 250mps
config *.sat[*].mobility.typename StationaryMobility
config *.gnb[*].carrierAggregation.numComponentCarriers 1
config *.gnb[*].cellularNic.numCarriers 1
config *.gnb1.mobility.initialX 250m
config *.gnb1.mobility.initialY 500m
config *.gnb2.mobility.initialX 800m
config *.gnb2.mobility.initialY 500m
config *.core.upf.numSgiIfaces 2
config *.ue[*].macCellId 0
config *.ue[*].masterId 0
config *.ue[*].nrMacCellId 1
config *.ue[*].nrMasterId 1
config **.dynamicCellAssociation true
config **.enableHandover true
config *.iot[*].numApps 1
config *.iot[*].app[0].typename UdpBasicApp
config *.iot[*].app[0].messageLength 32B
config *.iot[*].app[0].sendInterval uniform(0.5s,1.5s)
config *.iot[*].app[0].destPort 5000
config *.iot[*].app[0].chooseDestAddr "\"random\""
config *.host[*].numApps 1
config *.host[*].app[0].typename UdpBasicApp
config *.host[*].app[0].messageLength 100B
config *.host[*].app[0].sendInterval exponential(2s)
config *.host[*].app[0].destAddresses "\"iot[0..99]\""
config *.host[*].app[*].localPort 3088+ancestorIndex(0)
config *.host[*].app[*].destPort "3000 + ancestorIndex(1)"
config *.host[*].app[0].startTime uniform(1s,2s)
config *.host[*].app[0].stopTime 120s
config *.ue[*].numApps 1
config *.ue[*].app[*].localPort 3000
config *.ue[*].app[0].typename UdpBasicApp
config *.ue[*].app[0].messageLength 100B
config *.ue[*].app[0].sendInterval exponential(2s)
config *.ue[*].app[0].destAddresses "\"iot[0..99] host[0..9]\""
config *.ue[*].app[*].destPort "3000 + ancestorIndex(1)"
config *.ue[*].app[0].startTime uniform(1s,3s)
config *.aircraft[*].numApps 1
config *.aircraft[*].app[0].typename UdpSink
config *.aircraft[*].app[0].localPort 6000
config **.udp*.endToEndDelay.vector-recording true
config **.udp*.packetLossRate.vector-recording true
config **.udp*.throughput.vector-recording true
config output-vector-file result/vectors.vec
config output-scalar-file result/scalars.sca
config **.scalar-recording true
config **.vector-recording true
config *.router[*].numPcapRecorders 2
config *.router[*].pcapRecorder[0].moduleNamePatterns "\"ppp[*]\""
config *.router[*].pcapRecorder[1].moduleNamePatterns "\"eth[*]\""
config *.router[*].pcapRecorder[0].pcapFile "\"result/backbone.ppp.pcap\""
config *.router[*].pcapRecorder[1].pcapFile "\"result/backbone.eth.pcap\""
config *.gnb*.cellularNic.numPcapRecorders 1
config *.gnb*.cellularNic.pcapRecorder.typename PcapRecorder
config *.gnb*.cellularNic.pcapRecorder[*].pcapFile "\"result/5g.pcap\""
config *.sat[*].numPcapRecorders 1
config *.sat[*].pcapRecorder[*].moduleNamePatterns "\"ppp[*]\""
config *.sat[*].pcapRecorder[*].pcapFile "\"result/sat.pcap\""
config *.aircraft[*].numPcapRecorders 1
config *.aircraft[*].pcapRecorder[*].moduleNamePatterns "\"ppp[*]\""
config *.aircraft[*].pcapRecorder[*].pcapFile "\"result/air.pcap\""
config **.pcapRecorder[*].alwaysFlush true

vector 0 Hybrid5GSatNetwork.upf.lo[0].lo rcvdPkFromHl:vector(packetBytes) ETV
attr interpolationmode none
attr recordingmode vector(packetBytes)
attr source packetReceivedFromUpper
attr title "packets received from higher layer, packetBytes"
vector 1 Hybrid5GSatNetwork.upf.lo[0].lo passedUpPk:vector(packetBytes) ETV
attr interpolationmode none
attr recordingmode vector(packetBytes)
attr source packetSentToUpper
attr title "packets passed to higher layer, packetBytes"
vector 2 Hybrid5GSatNetwork.upf.lo[0] packetDropInterfaceDown:vector(packetBytes) ETV
attr interpolationmode none
attr recordingmode vector(packetBytes)
attr source packetDropReasonIsInterfaceDown(packetDropped)
attr title "packet drops: interface down, packetBytes"
vector 3 Hybrid5GSatNetwork.upf.lo[0] packetDropNoCarrier:vector(packetBytes) ETV
attr interpolationmode none
attr recordingmode vector(packetBytes)
attr source packetDropReasonIsNoCarrier(packetDropped)
attr title "packet drops: no carrier, packetBytes"
vector 4 Hybrid5GSatNetwork.upf.ppp[0].queue queueLength:vector ETV
attr autoWarmupFilter false
attr interpolationmode sample-hold
attr recordingmode vector
attr source "warmup(atomic(constant0(packetPushEnded) + count(packetPushStarted) - count(packetPulled) - count(packetRemoved) - count(packetDropped)))"
attr title "queue length"
attr unit pk
vector 5 Hybrid5GSatNetwork.upf.ppp[0].queue queueBitLength:vector ETV
attr autoWarmupFilter false
attr interpolationmode sample-hold
attr recordingmode vector
attr source "warmup(atomic(constant0(packetPushEnded) + sum(packetLength(packetPushStarted)) - sum(packetLength(packetPulled)) - sum(packetLength(packetRemoved)) - sum(packetLength(packetDropped))))"
attr title "queue bit length"
attr unit b
vector 6 Hybrid5GSatNetwork.upf.ppp[0].queue queueingTime:vector ETV
attr interpolationmode none
attr recordingmode vector
attr source queueingTime(packetPulled)
attr title "queueing times"
attr unit s
vector 7 Hybrid5GSatNetwork.upf.ppp[0].queue incomingPacketLengths:vector ETV
attr interpolationmode none
attr recordingmode vector
attr source packetLength(packetPushStarted)
attr title "incoming packet lengths"
attr unit b
vector 8 Hybrid5GSatNetwork.upf.ppp[0].queue incomingDataRate:vector ETV
attr interpolationmode linear
attr recordingmode vector
attr source throughput(packetPushStarted)
attr title "incoming datarate"
attr unit bps
vector 9 Hybrid5GSatNetwork.upf.ppp[0].queue outgoingPacketLengths:vector ETV
attr interpolationmode none
attr recordingmode vector
attr source packetLength(packetPulled)
attr title "outgoing packet lengths"
attr unit b
vector 10 Hybrid5GSatNetwork.upf.ppp[0].queue outgoingDataRate:vector ETV
attr interpolationmode linear
attr recordingmode vector
attr source throughput(packetPulled)
attr title "outgoing datarate"
attr unit bps
vector 11 Hybrid5GSatNetwork.upf.ppp[0].queue droppedPacketLengthsQueueOverflow:vector ETV
attr interpolationmode none
attr recordingmode vector
attr source packetLength(packetDropReasonIsQueueOverflow(packetDropped))
attr title "dropped packet lengths: queue overflow"
attr unit b
vector 12 Hybrid5GSatNetwork.upf.ppp[0].queue flowQueueingTime:vector ETV
attr interpolationmode none
attr recordingmode vector
attr source queueingTime(demuxFlow(packetPulled))
attr title "flow queueing times"
attr unit s
vector 13 Hybrid5GSatNetwork.upf.ppp[0].queue flowIncomingDataRate:vector ETV
attr interpolationmode linear
attr recordingmode vector
attr source throughput(flowPacketLength(demuxFlow(packetPushStarted)))
attr title "flow specific incoming data rate"
attr unit bps
vector 14 Hybrid5GSatNetwork.upf.ppp[0].queue flowOutgoingDataRate:vector ETV
attr interpolationmode linear
attr recordingmode vector
attr source throughput(flowPacketLength(demuxFlow(packetPulled)))
attr title "flow specific outgoing data rate"
attr unit bps
vector 15 Hybrid5GSatNetwork.upf.ppp[0].ppp transmissionState:vector ETV
attr interpolationmode sample-hold
attr recordingmode vector
attr source transmissionStateChanged
attr title "tx state"
vector 16 Hybrid5GSatNetwork.upf.ppp[0].ppp txPk:vector(packetBytes) ETV
attr interpolationmode none
attr recordingmode vector(packetBytes)
attr source packetSentToLower
attr title "packets transmitted, packetBytes"
vector 17 Hybrid5GSatNetwork.upf.ppp[0].ppp rxPkOk:vector(packetBytes) ETV
attr interpolationmode none
attr recordingmode vector(packetBytes)
attr source rxPkOk
attr title "packets received OK, packetBytes"
vector 18 Hybrid5GSatNetwork.upf.ppp[0].ppp packetDropIncorrectlyReceived:vector(packetBytes) ETV
attr interpolationmode none
attr recordingmode vector(packetBytes)
attr source packetDropReasonIsIncorrectlyReceived(packetDropped)
attr title "packet drop: incorrectly received, packetBytes"
vector 19 Hybrid5GSatNetwork.upf.ppp[0].ppp packetDropInterfaceDown:vector(packetBytes) ETV
attr interpolationmode none
attr recordingmode vector(packetBytes)
attr source packetDropReasonIsInterfaceDown(packetDropped)
attr title "packet drop: interface down, packetBytes"
vector 20 Hybrid5GSatNetwork.upf.ppp[0].ppp rcvdPkFromHl:vector(packetBytes) ETV
attr interpolationmode none
attr recordingmode vector(packetBytes)
attr source packetReceivedFromUpper
attr title "packets received from higher layer, packetBytes"
vector 21 Hybrid5GSatNetwork.upf.ppp[0].ppp passedUpPk:vector(packetBytes) ETV
attr interpolationmode none
attr recordingmode vector(packetBytes)
attr source packetSentToUpper
attr title "packets passed to higher layer, packetBytes"
vector 22 Hybrid5GSatNetwork.upf.ppp[0] packetDropInterfaceDown:vector(packetBytes) ETV
attr interpolationmode none
attr recordingmode vector(packetBytes)
attr source packetDropReasonIsInterfaceDown(packetDropped)
attr title "packet drops: interface down, packetBytes"
vector 23 Hybrid5GSatNetwork.upf.ppp[0] packetDropNoCarrier:vector(packetBytes) ETV
attr interpolationmode none
attr recordingmode vector(packetBytes)
attr source packetDropReasonIsNoCarrier(packetDropped)
attr title "packet drops: no carrier, packetBytes"
vector 24 Hybrid5GSatNetwork.upf.ipv4.ip packetDropAddressResolutionFailed:vector(packetBytes) ETV
attr interpolationmode none
attr recordingmode vector(packetBytes)
attr source packetDropReasonIsAddressResolutionFailed(packetDropped)
attr title "packet drop: address resolution failed, packetBytes"
vector 25 Hybrid5GSatNetwork.upf.ipv4.ip packetDropHopLimitReached:vector(packetBytes) ETV
attr interpolationmode none
attr recordingmode vector(packetBytes)
attr source packetDropReasonIsHopLimitReached(packetDropped)
attr title "packet drop: hop limit reached, packetBytes"
vector 26 Hybrid5GSatNetwork.upf.ipv4.ip packetDropForwardingDisabled:vector(packetBytes) ETV
attr interpolationmode none
attr recordingmode vector(packetBytes)
attr source packetDropReasonIsForwardingDisabled(packetDropped)
attr title "packet drop: forwarding disabled, packetBytes"
vector 27 Hybrid5GSatNetwork.upf.ipv4.ip packetDropNoInterfaceFound:vector(packetBytes) ETV
attr interpolationmode none
attr recordingmode vector(packetBytes)
attr source packetDropReasonIsNoInterfaceFound(packetDropped)
attr title "packet drop: no interface found, packetBytes"
vector 28 Hybrid5GSatNetwork.upf.ipv4.ip packetDropNoRouteFound:vector(packetBytes) ETV
attr interpolationmode none
attr recordingmode vector(packetBytes)
attr source packetDropReasonIsNoRouteFound(packetDropped)
attr title "packet drop: no route found, packetBytes"
vector 29 Hybrid5GSatNetwork.upf.ipv4.ip packetDropUndefined:vector(packetBytes) ETV
attr interpolationmode none
attr recordingmode vector(packetBytes)
attr source packetDropReasonIsUndefined(packetDropped)
attr title "packet drop: undefined, packetBytes"
vector 30 Hybrid5GSatNetwork.upf.ipv4.arp arpRequestSent:vector(packetBytes) ETV
attr recordingmode vector(packetBytes)
attr source arpRequestSent
attr title "ARP request sent, packetBytes"
vector 31 Hybrid5GSatNetwork.upf.ipv4.arp arpReplySent:vector(packetBytes) ETV
attr recordingmode vector(packetBytes)
attr source arpReplySent
attr title "ARP replies sent, packetBytes"
vector 32 Hybrid5GSatNetwork.upf.pppIf.queue queueLength:vector ETV
attr autoWarmupFilter false
attr interpolationmode sample-hold
attr recordingmode vector
attr source "warmup(atomic(constant0(packetPushEnded) + count(packetPushStarted) - count(packetPulled) - count(packetRemoved) - count(packetDropped)))"
attr title "queue length"
attr unit pk
vector 33 Hybrid5GSatNetwork.upf.pppIf.queue queueBitLength:vector ETV
attr autoWarmupFilter false
attr interpolationmode sample-hold
attr recordingmode vector
attr source "warmup(atomic(constant0(packetPushEnded) + sum(packetLength(packetPushStarted)) - sum(packetLength(packetPulled)) - sum(packetLength(packetRemoved)) - sum(packetLength(packetDropped))))"
attr title "queue bit length"
attr unit b
vector 34 Hybrid5GSatNetwork.upf.pppIf.queue queueingTime:vector ETV
attr interpolationmode none
attr recordingmode vector
attr source queueingTime(packetPulled)
attr title "queueing times"
attr unit s
vector 35 Hybrid5GSatNetwork.upf.pppIf.queue incomingPacketLengths:vector ETV
attr interpolationmode none
attr recordingmode vector
attr source packetLength(packetPushStarted)
attr title "incoming packet lengths"
attr unit b
vector 36 Hybrid5GSatNetwork.upf.pppIf.queue incomingDataRate:vector ETV
attr interpolationmode linear
attr recordingmode vector
attr source throughput(packetPushStarted)
attr title "incoming datarate"
attr unit bps
vector 37 Hybrid5GSatNetwork.upf.pppIf.queue outgoingPacketLengths:vector ETV
attr interpolationmode none
attr recordingmode vector
attr source packetLength(packetPulled)
attr title "outgoing packet lengths"
attr unit b
vector 38 Hybrid5GSatNetwork.upf.pppIf.queue outgoingDataRate:vector ETV
attr interpolationmode linear
attr recordingmode vector
attr source throughput(packetPulled)
attr title "outgoing datarate"
attr unit bps
vector 39 Hybrid5GSatNetwork.upf.pppIf.queue droppedPacketLengthsQueueOverflow:vector ETV
attr interpolationmode none
attr recordingmode vector
attr source packetLength(packetDropReasonIsQueueOverflow(packetDropped))
attr title "dropped packet lengths: queue overflow"
attr unit b
vector 40 Hybrid5GSatNetwork.upf.pppIf.queue flowQueueingTime:vector ETV
attr interpolationmode none
attr recordingmode vector
attr source queueingTime(demuxFlow(packetPulled))
attr title "flow queueing times"
attr unit s
vector 41 Hybrid5GSatNetwork.upf.pppIf.queue flowIncomingDataRate:vector ETV
attr interpolationmode linear
attr recordingmode vector
attr source throughput(flowPacketLength(demuxFlow(packetPushStarted)))
attr title "flow specific incoming data rate"
attr unit bps
vector 42 Hybrid5GSatNetwork.upf.pppIf.queue flowOutgoingDataRate:vector ETV
attr interpolationmode linear
attr recordingmode vector
attr source throughput(flowPacketLength(demuxFlow(packetPulled)))
attr title "flow specific outgoing data rate"
attr unit bps
vector 43 Hybrid5GSatNetwork.upf.pppIf.ppp transmissionState:vector ETV
attr interpolationmode sample-hold
attr recordingmode vector
attr source transmissionStateChanged
attr title "tx state"
vector 44 Hybrid5GSatNetwork.upf.pppIf.ppp txPk:vector(packetBytes) ETV
attr interpolationmode none
attr recordingmode vector(packetBytes)
attr source packetSentToLower
attr title "packets transmitted, packetBytes"
vector 45 Hybrid5GSatNetwork.upf.pppIf.ppp rxPkOk:vector(packetBytes) ETV
attr interpolationmode none
attr recordingmode vector(packetBytes)
attr source rxPkOk
attr title "packets received OK, packetBytes"
vector 46 Hybrid5GSatNetwork.upf.pppIf.ppp packetDropIncorrectlyReceived:vector(packetBytes) ETV
attr interpolationmode none
attr recordingmode vector(packetBytes)
attr source packetDropReasonIsIncorrectlyReceived(packetDropped)
attr title "packet drop: incorrectly received, packetBytes"
vector 47 Hybrid5GSatNetwork.upf.pppIf.ppp packetDropInterfaceDown:vector(packetBytes) ETV
attr interpolationmode none
attr recordingmode vector(packetBytes)
attr source packetDropReasonIsInterfaceDown(packetDropped)
attr title "packet drop: interface down, packetBytes"
vector 48 Hybrid5GSatNetwork.upf.pppIf.ppp rcvdPkFromHl:vector(packetBytes) ETV
attr interpolationmode none
attr recordingmode vector(packetBytes)
attr source packetReceivedFromUpper
attr title "packets received from higher layer, packetBytes"
vector 49 Hybrid5GSatNetwork.upf.pppIf.ppp passedUpPk:vector(packetBytes) ETV
attr interpolationmode none
attr recordingmode vector(packetBytes)
attr source packetSentToUpper
attr title "packets passed to higher layer, packetBytes"
vector 50 Hybrid5GSatNetwork.upf.pppIf packetDropInterfaceDown:vector(packetBytes) ETV
attr interpolationmode none
attr recordingmode vector(packetBytes)
attr source packetDropReasonIsInterfaceDown(packetDropped)
attr title "packet drops: interface down, packetBytes"
vector 51 Hybrid5GSatNetwork.upf.pppIf packetDropNoCarrier:vector(packetBytes) ETV
attr interpolationmode none
attr recordingmode vector(packetBytes)
attr source packetDropReasonIsNoCarrier(packetDropped)
attr title "packet drops: no carrier, packetBytes"
vector 52 Hybrid5GSatNetwork.upf.udp packetSent:vector(packetBytes) ETV
attr interpolationmode none
attr recordingmode vector(packetBytes)
attr source packetSent
attr title "packets sent, packetBytes"
vector 53 Hybrid5GSatNetwork.upf.udp packetReceived:vector(packetBytes) ETV
attr interpolationmode none
attr recordingmode vector(packetBytes)
attr source packetReceived
attr title "packets received, packetBytes"
vector 54 Hybrid5GSatNetwork.upf.udp passedUpPk:vector(count) ETV
attr interpolationmode none
attr recordingmode vector(count)
attr source packetSentToUpper
attr title "packets passed up, count"
vector 55 Hybrid5GSatNetwork.upf.udp droppedPkWrongPort:vector(count) ETV
attr interpolationmode none
attr recordingmode vector(count)
attr source packetDropReasonIsNoPortFound(packetDropped)
attr title "packets dropped (wrong port), count"
vector 56 Hybrid5GSatNetwork.upf.udp droppedPkBadChecksum:vector(count) ETV
attr interpolationmode none
attr recordingmode vector(count)
attr source packetDropReasonIsIncorrectlyReceived(packetDropped)
attr title "packets dropped (checksum error), count"
vector 57 Hybrid5GSatNetwork.iupf.lo[0].lo rcvdPkFromHl:vector(packetBytes) ETV
attr interpolationmode none
attr recordingmode vector(packetBytes)
attr source packetReceivedFromUpper
attr title "packets received from higher layer, packetBytes"
vector 58 Hybrid5GSatNetwork.iupf.lo[0].lo passedUpPk:vector(packetBytes) ETV
attr interpolationmode none
attr recordingmode vector(packetBytes)
attr source packetSentToUpper
attr title "packets passed to higher layer, packetBytes"
vector 59 Hybrid5GSatNetwork.iupf.lo[0] packetDropInterfaceDown:vector(packetBytes) ETV
attr interpolationmode none
attr recordingmode vector(packetBytes)
attr source packetDropReasonIsInterfaceDown(packetDropped)
attr title "packet drops: interface down, packetBytes"
vector 60 Hybrid5GSatNetwork.iupf.lo[0] packetDropNoCarrier:vector(packetBytes) ETV
attr interpolationmode none
attr recordingmode vector(packetBytes)
attr source packetDropReasonIsNoCarrier(packetDropped)
attr title "packet drops: no carrier, packetBytes"
vector 61 Hybrid5GSatNetwork.iupf.ppp[0].queue queueLength:vector ETV
attr autoWarmupFilter false
attr interpolationmode sample-hold
attr recordingmode vector
attr source "warmup(atomic(constant0(packetPushEnded) + count(packetPushStarted) - count(packetPulled) - count(packetRemoved) - count(packetDropped)))"
attr title "queue length"
attr unit pk
vector 62 Hybrid5GSatNetwork.iupf.ppp[0].queue queueBitLength:vector ETV
attr autoWarmupFilter false
attr interpolationmode sample-hold
attr recordingmode vector
attr source "warmup(atomic(constant0(packetPushEnded) + sum(packetLength(packetPushStarted)) - sum(packetLength(packetPulled)) - sum(packetLength(packetRemoved)) - sum(packetLength(packetDropped))))"
attr title "queue bit length"
attr unit b
vector 63 Hybrid5GSatNetwork.iupf.ppp[0].queue queueingTime:vector ETV
attr interpolationmode none
attr recordingmode vector
attr source queueingTime(packetPulled)
attr title "queueing times"
attr unit s
vector 64 Hybrid5GSatNetwork.iupf.ppp[0].queue incomingPacketLengths:vector ETV
attr interpolationmode none
attr recordingmode vector
attr source packetLength(packetPushStarted)
attr title "incoming packet lengths"
attr unit b
vector 65 Hybrid5GSatNetwork.iupf.ppp[0].queue incomingDataRate:vector ETV
attr interpolationmode linear
attr recordingmode vector
attr source throughput(packetPushStarted)
attr title "incoming datarate"
attr unit bps
vector 66 Hybrid5GSatNetwork.iupf.ppp[0].queue outgoingPacketLengths:vector ETV
attr interpolationmode none
attr recordingmode vector
attr source packetLength(packetPulled)
attr title "outgoing packet lengths"
attr unit b
vector 67 Hybrid5GSatNetwork.iupf.ppp[0].queue outgoingDataRate:vector ETV
attr interpolationmode linear
attr recordingmode vector
attr source throughput(packetPulled)
attr title "outgoing datarate"
attr unit bps
vector 68 Hybrid5GSatNetwork.iupf.ppp[0].queue droppedPacketLengthsQueueOverflow:vector ETV
attr interpolationmode none
attr recordingmode vector
attr source packetLength(packetDropReasonIsQueueOverflow(packetDropped))
attr title "dropped packet lengths: queue overflow"
attr unit b
vector 69 Hybrid5GSatNetwork.iupf.ppp[0].queue flowQueueingTime:vector ETV
attr interpolationmode none
attr recordingmode vector
attr source queueingTime(demuxFlow(packetPulled))
attr title "flow queueing times"
attr unit s
vector 70 Hybrid5GSatNetwork.iupf.ppp[0].queue flowIncomingDataRate:vector ETV
attr interpolationmode linear
attr recordingmode vector
attr source throughput(flowPacketLength(demuxFlow(packetPushStarted)))
attr title "flow specific incoming data rate"
attr unit bps
vector 71 Hybrid5GSatNetwork.iupf.ppp[0].queue flowOutgoingDataRate:vector ETV
attr interpolationmode linear
attr recordingmode vector
attr source throughput(flowPacketLength(demuxFlow(packetPulled)))
attr title "flow specific outgoing data rate"
attr unit bps
vector 72 Hybrid5GSatNetwork.iupf.ppp[0].ppp transmissionState:vector ETV
attr interpolationmode sample-hold
attr recordingmode vector
attr source transmissionStateChanged
attr title "tx state"
vector 73 Hybrid5GSatNetwork.iupf.ppp[0].ppp txPk:vector(packetBytes) ETV
attr interpolationmode none
attr recordingmode vector(packetBytes)
attr source packetSentToLower
attr title "packets transmitted, packetBytes"
vector 74 Hybrid5GSatNetwork.iupf.ppp[0].ppp rxPkOk:vector(packetBytes) ETV
attr interpolationmode none
attr recordingmode vector(packetBytes)
attr source rxPkOk
attr title "packets received OK, packetBytes"
vector 75 Hybrid5GSatNetwork.iupf.ppp[0].ppp packetDropIncorrectlyReceived:vector(packetBytes) ETV
attr interpolationmode none
attr recordingmode vector(packetBytes)
attr source packetDropReasonIsIncorrectlyReceived(packetDropped)
attr title "packet drop: incorrectly received, packetBytes"
vector 76 Hybrid5GSatNetwork.iupf.ppp[0].ppp packetDropInterfaceDown:vector(packetBytes) ETV
attr interpolationmode none
attr recordingmode vector(packetBytes)
attr source packetDropReasonIsInterfaceDown(packetDropped)
attr title "packet drop: interface down, packetBytes"
vector 77 Hybrid5GSatNetwork.iupf.ppp[0].ppp rcvdPkFromHl:vector(packetBytes) ETV
attr interpolationmode none
attr recordingmode vector(packetBytes)
attr source packetReceivedFromUpper
attr title "packets received from higher layer, packetBytes"
vector 78 Hybrid5GSatNetwork.iupf.ppp[0].ppp passedUpPk:vector(packetBytes) ETV
attr interpolationmode none
attr recordingmode vector(packetBytes)
attr source packetSentToUpper
attr title "packets passed to higher layer, packetBytes"
vector 79 Hybrid5GSatNetwork.iupf.ppp[0] packetDropInterfaceDown:vector(packetBytes) ETV
attr interpolationmode none
attr recordingmode vector(packetBytes)
attr source packetDropReasonIsInterfaceDown(packetDropped)
attr title "packet drops: interface down, packetBytes"
vector 80 Hybrid5GSatNetwork.iupf.ppp[0] packetDropNoCarrier:vector(packetBytes) ETV
attr interpolationmode none
attr recordingmode vector(packetBytes)
attr source packetDropReasonIsNoCarrier(packetDropped)
attr title "packet drops: no carrier, packetBytes"
vector 81 Hybrid5GSatNetwork.iupf.ppp[1].queue queueLength:vector ETV
attr autoWarmupFilter false
attr interpolationmode sample-hold
attr recordingmode vector
attr source "warmup(atomic(constant0(packetPushEnded) + count(packetPushStarted) - count(packetPulled) - count(packetRemoved) - count(packetDropped)))"
attr title "queue length"
attr unit pk
vector 82 Hybrid5GSatNetwork.iupf.ppp[1].queue queueBitLength:vector ETV
attr autoWarmupFilter false
attr interpolationmode sample-hold
attr recordingmode vector
attr source "warmup(atomic(constant0(packetPushEnded) + sum(packetLength(packetPushStarted)) - sum(packetLength(packetPulled)) - sum(packetLength(packetRemoved)) - sum(packetLength(packetDropped))))"
attr title "queue bit length"
attr unit b
vector 83 Hybrid5GSatNetwork.iupf.ppp[1].queue queueingTime:vector ETV
attr interpolationmode none
attr recordingmode vector
attr source queueingTime(packetPulled)
attr title "queueing times"
attr unit s
vector 84 Hybrid5GSatNetwork.iupf.ppp[1].queue incomingPacketLengths:vector ETV
attr interpolationmode none
attr recordingmode vector
attr source packetLength(packetPushStarted)
attr title "incoming packet lengths"
attr unit b
vector 85 Hybrid5GSatNetwork.iupf.ppp[1].queue incomingDataRate:vector ETV
attr interpolationmode linear
attr recordingmode vector
attr source throughput(packetPushStarted)
attr title "incoming datarate"
attr unit bps
vector 86 Hybrid5GSatNetwork.iupf.ppp[1].queue outgoingPacketLengths:vector ETV
attr interpolationmode none
attr recordingmode vector
attr source packetLength(packetPulled)
attr title "outgoing packet lengths"
attr unit b
vector 87 Hybrid5GSatNetwork.iupf.ppp[1].queue outgoingDataRate:vector ETV
attr interpolationmode linear
attr recordingmode vector
attr source throughput(packetPulled)
attr title "outgoing datarate"
attr unit bps
vector 88 Hybrid5GSatNetwork.iupf.ppp[1].queue droppedPacketLengthsQueueOverflow:vector ETV
attr interpolationmode none
attr recordingmode vector
attr source packetLength(packetDropReasonIsQueueOverflow(packetDropped))
attr title "dropped packet lengths: queue overflow"
attr unit b
vector 89 Hybrid5GSatNetwork.iupf.ppp[1].queue flowQueueingTime:vector ETV
attr interpolationmode none
attr recordingmode vector
attr source queueingTime(demuxFlow(packetPulled))
attr title "flow queueing times"
attr unit s
vector 90 Hybrid5GSatNetwork.iupf.ppp[1].queue flowIncomingDataRate:vector ETV
attr interpolationmode linear
attr recordingmode vector
attr source throughput(flowPacketLength(demuxFlow(packetPushStarted)))
attr title "flow specific incoming data rate"
attr unit bps
vector 91 Hybrid5GSatNetwork.iupf.ppp[1].queue flowOutgoingDataRate:vector ETV
attr interpolationmode linear
attr recordingmode vector
attr source throughput(flowPacketLength(demuxFlow(packetPulled)))
attr title "flow specific outgoing data rate"
attr unit bps
vector 92 Hybrid5GSatNetwork.iupf.ppp[1].ppp transmissionState:vector ETV
attr interpolationmode sample-hold
attr recordingmode vector
attr source transmissionStateChanged
attr title "tx state"
vector 93 Hybrid5GSatNetwork.iupf.ppp[1].ppp txPk:vector(packetBytes) ETV
attr interpolationmode none
attr recordingmode vector(packetBytes)
attr source packetSentToLower
attr title "packets transmitted, packetBytes"
vector 94 Hybrid5GSatNetwork.iupf.ppp[1].ppp rxPkOk:vector(packetBytes) ETV
attr interpolationmode none
attr recordingmode vector(packetBytes)
attr source rxPkOk
attr title "packets received OK, packetBytes"
vector 95 Hybrid5GSatNetwork.iupf.ppp[1].ppp packetDropIncorrectlyReceived:vector(packetBytes) ETV
attr interpolationmode none
attr recordingmode vector(packetBytes)
attr source packetDropReasonIsIncorrectlyReceived(packetDropped)
attr title "packet drop: incorrectly received, packetBytes"
vector 96 Hybrid5GSatNetwork.iupf.ppp[1].ppp packetDropInterfaceDown:vector(packetBytes) ETV
attr interpolationmode none
attr recordingmode vector(packetBytes)
attr source packetDropReasonIsInterfaceDown(packetDropped)
attr title "packet drop: interface down, packetBytes"
vector 97 Hybrid5GSatNetwork.iupf.ppp[1].ppp rcvdPkFromHl:vector(packetBytes) ETV
attr interpolationmode none
attr recordingmode vector(packetBytes)
attr source packetReceivedFromUpper
attr title "packets received from higher layer, packetBytes"
vector 98 Hybrid5GSatNetwork.iupf.ppp[1].ppp passedUpPk:vector(packetBytes) ETV
attr interpolationmode none
attr recordingmode vector(packetBytes)
attr source packetSentToUpper
attr title "packets passed to higher layer, packetBytes"
vector 99 Hybrid5GSatNetwork.iupf.ppp[1] packetDropInterfaceDown:vector(packetBytes) ETV
attr interpolationmode none
attr recordingmode vector(packetBytes)
attr source packetDropReasonIsInterfaceDown(packetDropped)
attr title "packet drops: interface down, packetBytes"
vector 100 Hybrid5GSatNetwork.iupf.ppp[1] packetDropNoCarrier:vector(packetBytes) ETV
attr interpolationmode none
attr recordingmode vector(packetBytes)
attr source packetDropReasonIsNoCarrier(packetDropped)
attr title "packet drops: no carrier, packetBytes"
vector 101 Hybrid5GSatNetwork.iupf.ppp[2].queue queueLength:vector ETV
attr autoWarmupFilter false
attr interpolationmode sample-hold
attr recordingmode vector
attr source "warmup(atomic(constant0(packetPushEnded) + count(packetPushStarted) - count(packetPulled) - count(packetRemoved) - count(packetDropped)))"
attr title "queue length"
attr unit pk
vector 102 Hybrid5GSatNetwork.iupf.ppp[2].queue queueBitLength:vector ETV
attr autoWarmupFilter false
attr interpolationmode sample-hold
attr recordingmode vector
attr source "warmup(atomic(constant0(packetPushEnded) + sum(packetLength(packetPushStarted)) - sum(packetLength(packetPulled)) - sum(packetLength(packetRemoved)) - sum(packetLength(packetDropped))))"
attr title "queue bit length"
attr unit b
vector 103 Hybrid5GSatNetwork.iupf.ppp[2].queue queueingTime:vector ETV
attr interpolationmode none
attr recordingmode vector
attr source queueingTime(packetPulled)
attr title "queueing times"
attr unit s
vector 104 Hybrid5GSatNetwork.iupf.ppp[2].queue incomingPacketLengths:vector ETV
attr interpolationmode none
attr recordingmode vector
attr source packetLength(packetPushStarted)
attr title "incoming packet lengths"
attr unit b
vector 105 Hybrid5GSatNetwork.iupf.ppp[2].queue incomingDataRate:vector ETV
attr interpolationmode linear
attr recordingmode vector
attr source throughput(packetPushStarted)
attr title "incoming datarate"
attr unit bps
vector 106 Hybrid5GSatNetwork.iupf.ppp[2].queue outgoingPacketLengths:vector ETV
attr interpolationmode none
attr recordingmode vector
attr source packetLength(packetPulled)
attr title "outgoing packet lengths"
attr unit b
vector 107 Hybrid5GSatNetwork.iupf.ppp[2].queue outgoingDataRate:vector ETV
attr interpolationmode linear
attr recordingmode vector
attr source throughput(packetPulled)
attr title "outgoing datarate"
attr unit bps
vector 108 Hybrid5GSatNetwork.iupf.ppp[2].queue droppedPacketLengthsQueueOverflow:vector ETV
attr interpolationmode none
attr recordingmode vector
attr source packetLength(packetDropReasonIsQueueOverflow(packetDropped))
attr title "dropped packet lengths: queue overflow"
attr unit b
vector 109 Hybrid5GSatNetwork.iupf.ppp[2].queue flowQueueingTime:vector ETV
attr interpolationmode none
attr recordingmode vector
attr source queueingTime(demuxFlow(packetPulled))
attr title "flow queueing times"
attr unit s
vector 110 Hybrid5GSatNetwork.iupf.ppp[2].queue flowIncomingDataRate:vector ETV
attr interpolationmode linear
attr recordingmode vector
attr source throughput(flowPacketLength(demuxFlow(packetPushStarted)))
attr title "flow specific incoming data rate"
attr unit bps
vector 111 Hybrid5GSatNetwork.iupf.ppp[2].queue flowOutgoingDataRate:vector ETV
attr interpolationmode linear
attr recordingmode vector
attr source throughput(flowPacketLength(demuxFlow(packetPulled)))
attr title "flow specific outgoing data rate"
attr unit bps
vector 112 Hybrid5GSatNetwork.iupf.ppp[2].ppp transmissionState:vector ETV
attr interpolationmode sample-hold
attr recordingmode vector
attr source transmissionStateChanged
attr title "tx state"
vector 113 Hybrid5GSatNetwork.iupf.ppp[2].ppp txPk:vector(packetBytes) ETV
attr interpolationmode none
attr recordingmode vector(packetBytes)
attr source packetSentToLower
attr title "packets transmitted, packetBytes"
vector 114 Hybrid5GSatNetwork.iupf.ppp[2].ppp rxPkOk:vector(packetBytes) ETV
attr interpolationmode none
attr recordingmode vector(packetBytes)
attr source rxPkOk
attr title "packets received OK, packetBytes"
vector 115 Hybrid5GSatNetwork.iupf.ppp[2].ppp packetDropIncorrectlyReceived:vector(packetBytes) ETV
attr interpolationmode none
attr recordingmode vector(packetBytes)
attr source packetDropReasonIsIncorrectlyReceived(packetDropped)
attr title "packet drop: incorrectly received, packetBytes"
vector 116 Hybrid5GSatNetwork.iupf.ppp[2].ppp packetDropInterfaceDown:vector(packetBytes) ETV
attr interpolationmode none
attr recordingmode vector(packetBytes)
attr source packetDropReasonIsInterfaceDown(packetDropped)
attr title "packet drop: interface down, packetBytes"
vector 117 Hybrid5GSatNetwork.iupf.ppp[2].ppp rcvdPkFromHl:vector(packetBytes) ETV
attr interpolationmode none
attr recordingmode vector(packetBytes)
attr source packetReceivedFromUpper
attr title "packets received from higher layer, packetBytes"
vector 118 Hybrid5GSatNetwork.iupf.ppp[2].ppp passedUpPk:vector(packetBytes) ETV
attr interpolationmode none
attr recordingmode vector(packetBytes)
attr source packetSentToUpper
attr title "packets passed to higher layer, packetBytes"
vector 119 Hybrid5GSatNetwork.iupf.ppp[2] packetDropInterfaceDown:vector(packetBytes) ETV
attr interpolationmode none
attr recordingmode vector(packetBytes)
attr source packetDropReasonIsInterfaceDown(packetDropped)
attr title "packet drops: interface down, packetBytes"
vector 120 Hybrid5GSatNetwork.iupf.ppp[2] packetDropNoCarrier:vector(packetBytes) ETV
attr interpolationmode none
attr recordingmode vector(packetBytes)
attr source packetDropReasonIsNoCarrier(packetDropped)
attr title "packet drops: no carrier, packetBytes"
vector 121 Hybrid5GSatNetwork.iupf.ipv4.ip packetDropAddressResolutionFailed:vector(packetBytes) ETV
attr interpolationmode none
attr recordingmode vector(packetBytes)
attr source packetDropReasonIsAddressResolutionFailed(packetDropped)
attr title "packet drop: address resolution failed, packetBytes"
vector 122 Hybrid5GSatNetwork.iupf.ipv4.ip packetDropHopLimitReached:vector(packetBytes) ETV
attr interpolationmode none
attr recordingmode vector(packetBytes)
attr source packetDropReasonIsHopLimitReached(packetDropped)
attr title "packet drop: hop limit reached, packetBytes"
vector 123 Hybrid5GSatNetwork.iupf.ipv4.ip packetDropForwardingDisabled:vector(packetBytes) ETV
attr interpolationmode none
attr recordingmode vector(packetBytes)
attr source packetDropReasonIsForwardingDisabled(packetDropped)
attr title "packet drop: forwarding disabled, packetBytes"
vector 124 Hybrid5GSatNetwork.iupf.ipv4.ip packetDropNoInterfaceFound:vector(packetBytes) ETV
attr interpolationmode none
attr recordingmode vector(packetBytes)
attr source packetDropReasonIsNoInterfaceFound(packetDropped)
attr title "packet drop: no interface found, packetBytes"
vector 125 Hybrid5GSatNetwork.iupf.ipv4.ip packetDropNoRouteFound:vector(packetBytes) ETV
attr interpolationmode none
attr recordingmode vector(packetBytes)
attr source packetDropReasonIsNoRouteFound(packetDropped)
attr title "packet drop: no route found, packetBytes"
vector 126 Hybrid5GSatNetwork.iupf.ipv4.ip packetDropUndefined:vector(packetBytes) ETV
attr interpolationmode none
attr recordingmode vector(packetBytes)
attr source packetDropReasonIsUndefined(packetDropped)
attr title "packet drop: undefined, packetBytes"
vector 127 Hybrid5GSatNetwork.iupf.ipv4.arp arpRequestSent:vector(packetBytes) ETV
attr recordingmode vector(packetBytes)
attr source arpRequestSent
attr title "ARP request sent, packetBytes"
vector 128 Hybrid5GSatNetwork.iupf.ipv4.arp arpReplySent:vector(packetBytes) ETV
attr recordingmode vector(packetBytes)
attr source arpReplySent
attr title "ARP replies sent, packetBytes"
vector 129 Hybrid5GSatNetwork.iupf.pppIf.queue queueLength:vector ETV
attr autoWarmupFilter false
attr interpolationmode sample-hold
attr recordingmode vector
attr source "warmup(atomic(constant0(packetPushEnded) + count(packetPushStarted) - count(packetPulled) - count(packetRemoved) - count(packetDropped)))"
attr title "queue length"
attr unit pk
vector 130 Hybrid5GSatNetwork.iupf.pppIf.queue queueBitLength:vector ETV
attr autoWarmupFilter false
attr interpolationmode sample-hold
attr recordingmode vector
attr source "warmup(atomic(constant0(packetPushEnded) + sum(packetLength(packetPushStarted)) - sum(packetLength(packetPulled)) - sum(packetLength(packetRemoved)) - sum(packetLength(packetDropped))))"
attr title "queue bit length"
attr unit b
vector 131 Hybrid5GSatNetwork.iupf.pppIf.queue queueingTime:vector ETV
attr interpolationmode none
attr recordingmode vector
attr source queueingTime(packetPulled)
attr title "queueing times"
attr unit s
vector 132 Hybrid5GSatNetwork.iupf.pppIf.queue incomingPacketLengths:vector ETV
attr interpolationmode none
attr recordingmode vector
attr source packetLength(packetPushStarted)
attr title "incoming packet lengths"
attr unit b
vector 133 Hybrid5GSatNetwork.iupf.pppIf.queue incomingDataRate:vector ETV
attr interpolationmode linear
attr recordingmode vector
attr source throughput(packetPushStarted)
attr title "incoming datarate"
attr unit bps
vector 134 Hybrid5GSatNetwork.iupf.pppIf.queue outgoingPacketLengths:vector ETV
attr interpolationmode none
attr recordingmode vector
attr source packetLength(packetPulled)
attr title "outgoing packet lengths"
attr unit b
vector 135 Hybrid5GSatNetwork.iupf.pppIf.queue outgoingDataRate:vector ETV
attr interpolationmode linear
attr recordingmode vector
attr source throughput(packetPulled)
attr title "outgoing datarate"
attr unit bps
vector 136 Hybrid5GSatNetwork.iupf.pppIf.queue droppedPacketLengthsQueueOverflow:vector ETV
attr interpolationmode none
attr recordingmode vector
attr source packetLength(packetDropReasonIsQueueOverflow(packetDropped))
attr title "dropped packet lengths: queue overflow"
attr unit b
vector 137 Hybrid5GSatNetwork.iupf.pppIf.queue flowQueueingTime:vector ETV
attr interpolationmode none
attr recordingmode vector
attr source queueingTime(demuxFlow(packetPulled))
attr title "flow queueing times"
attr unit s
vector 138 Hybrid5GSatNetwork.iupf.pppIf.queue flowIncomingDataRate:vector ETV
attr interpolationmode linear
attr recordingmode vector
attr source throughput(flowPacketLength(demuxFlow(packetPushStarted)))
attr title "flow specific incoming data rate"
attr unit bps
vector 139 Hybrid5GSatNetwork.iupf.pppIf.queue flowOutgoingDataRate:vector ETV
attr interpolationmode linear
attr recordingmode vector
attr source throughput(flowPacketLength(demuxFlow(packetPulled)))
attr title "flow specific outgoing data rate"
attr unit bps
vector 140 Hybrid5GSatNetwork.iupf.pppIf.ppp transmissionState:vector ETV
attr interpolationmode sample-hold
attr recordingmode vector
attr source transmissionStateChanged
attr title "tx state"
vector 141 Hybrid5GSatNetwork.iupf.pppIf.ppp txPk:vector(packetBytes) ETV
attr interpolationmode none
attr recordingmode vector(packetBytes)
attr source packetSentToLower
attr title "packets transmitted, packetBytes"
vector 142 Hybrid5GSatNetwork.iupf.pppIf.ppp rxPkOk:vector(packetBytes) ETV
attr interpolationmode none
attr recordingmode vector(packetBytes)
attr source rxPkOk
attr title "packets received OK, packetBytes"
vector 143 Hybrid5GSatNetwork.iupf.pppIf.ppp packetDropIncorrectlyReceived:vector(packetBytes) ETV
attr interpolationmode none
attr recordingmode vector(packetBytes)
attr source packetDropReasonIsIncorrectlyReceived(packetDropped)
attr title "packet drop: incorrectly received, packetBytes"
vector 144 Hybrid5GSatNetwork.iupf.pppIf.ppp packetDropInterfaceDown:vector(packetBytes) ETV
attr interpolationmode none
attr recordingmode vector(packetBytes)
attr source packetDropReasonIsInterfaceDown(packetDropped)
attr title "packet drop: interface down, packetBytes"
vector 145 Hybrid5GSatNetwork.iupf.pppIf.ppp rcvdPkFromHl:vector(packetBytes) ETV
attr interpolationmode none
attr recordingmode vector(packetBytes)
attr source packetReceivedFromUpper
attr title "packets received from higher layer, packetBytes"
vector 146 Hybrid5GSatNetwork.iupf.pppIf.ppp passedUpPk:vector(packetBytes) ETV
attr interpolationmode none
attr recordingmode vector(packetBytes)
attr source packetSentToUpper
attr title "packets passed to higher layer, packetBytes"
vector 147 Hybrid5GSatNetwork.iupf.pppIf packetDropInterfaceDown:vector(packetBytes) ETV
attr interpolationmode none
attr recordingmode vector(packetBytes)
attr source packetDropReasonIsInterfaceDown(packetDropped)
attr title "packet drops: interface down, packetBytes"
vector 148 Hybrid5GSatNetwork.iupf.pppIf packetDropNoCarrier:vector(packetBytes) ETV
attr interpolationmode none
attr recordingmode vector(packetBytes)
attr source packetDropReasonIsNoCarrier(packetDropped)
attr title "packet drops: no carrier, packetBytes"
vector 149 Hybrid5GSatNetwork.iupf.udp packetSent:vector(packetBytes) ETV
attr interpolationmode none
attr recordingmode vector(packetBytes)
attr source packetSent
attr title "packets sent, packetBytes"
vector 150 Hybrid5GSatNetwork.iupf.udp packetReceived:vector(packetBytes) ETV
attr interpolationmode none
attr recordingmode vector(packetBytes)
attr source packetReceived
attr title "packets received, packetBytes"
vector 151 Hybrid5GSatNetwork.iupf.udp passedUpPk:vector(count) ETV
attr interpolationmode none
attr recordingmode vector(count)
attr source packetSentToUpper
attr title "packets passed up, count"
vector 152 Hybrid5GSatNetwork.iupf.udp droppedPkWrongPort:vector(count) ETV
attr interpolationmode none
attr recordingmode vector(count)
attr source packetDropReasonIsNoPortFound(packetDropped)
attr title "packets dropped (wrong port), count"
vector 153 Hybrid5GSatNetwork.iupf.udp droppedPkBadChecksum:vector(count) ETV
attr interpolationmode none
attr recordingmode vector(count)
attr source packetDropReasonIsIncorrectlyReceived(packetDropped)
attr title "packets dropped (checksum error), count"
vector 154 Hybrid5GSatNetwork.gnb1.cellularNic.pdcpRrc receivedPacketFromUpperLayer:vector(packetBytes) ETV
attr interpolationmode none
attr recordingmode vector(packetBytes)
attr source receivedPacketFromUpperLayer
vector 155 Hybrid5GSatNetwork.gnb1.cellularNic.pdcpRrc receivedPacketFromLowerLayer:vector(packetBytes) ETV
attr interpolationmode none
attr recordingmode vector(packetBytes)
attr source receivedPacketFromLowerLayer
vector 156 Hybrid5GSatNetwork.gnb1.cellularNic.pdcpRrc sentPacketToUpperLayer:vector(packetBytes) ETV
attr interpolationmode none
attr recordingmode vector(packetBytes)
attr source sentPacketToUpperLayer
vector 157 Hybrid5GSatNetwork.gnb1.cellularNic.pdcpRrc sentPacketToLowerLayer:vector(packetBytes) ETV
attr interpolationmode none
attr recordingmode vector(packetBytes)
attr source sentPacketToLowerLayer
vector 158 Hybrid5GSatNetwork.gnb1.cellularNic.rlc.tm rlcPacketLossUl:vector ETV
attr recordingmode vector
attr source rlcPacketLossUl
attr title "rlc Packet Loss"
attr unit ""
vector 159 Hybrid5GSatNetwork.gnb1.cellularNic.rlc.tm rlcPacketLossDl:vector ETV
attr recordingmode vector
attr source rlcPacketLossDl
attr title "rlc Packet Loss"
attr unit ""
vector 160 Hybrid5GSatNetwork.gnb1.cellularNic.rlc.tm receivedPacketFromUpperLayer:vector(packetBytes) ETV
attr interpolationmode none
attr recordingmode vector(packetBytes)
attr source receivedPacketFromUpperLayer
vector 161 Hybrid5GSatNetwork.gnb1.cellularNic.rlc.tm receivedPacketFromLowerLayer:vector(packetBytes) ETV
attr interpolationmode none
attr recordingmode vector(packetBytes)
attr source receivedPacketFromLowerLayer
vector 162 Hybrid5GSatNetwork.gnb1.cellularNic.rlc.tm sentPacketToUpperLayer:vector(packetBytes) ETV
attr interpolationmode none
attr recordingmode vector(packetBytes)
attr source sentPacketToUpperLayer
vector 163 Hybrid5GSatNetwork.gnb1.cellularNic.rlc.tm sentPacketToLowerLayer:vector(packetBytes) ETV
attr interpolationmode none
attr recordingmode vector(packetBytes)
attr source sentPacketToLowerLayer
vector 164 Hybrid5GSatNetwork.gnb1.cellularNic.rlc.um rlcDelayDl:vector ETV
attr recordingmode vector
attr source rlcDelayDl
attr title "Delay at the rlc layer DL"
attr unit s
vector 165 Hybrid5GSatNetwork.gnb1.cellularNic.rlc.um rlcThroughputDl:vector ETV
attr recordingmode vector
attr source rlcThroughputDl
attr title "Throughput at the rlc layer DL"
attr unit Bps
vector 166 Hybrid5GSatNetwork.gnb1.cellularNic.rlc.um rlcDelayUl:vector ETV
attr recordingmode vector
attr source rlcDelayUl
attr title "Delay at the rlc layer UL"
attr unit s
vector 167 Hybrid5GSatNetwork.gnb1.cellularNic.rlc.um rlcThroughputUl:vector ETV
attr recordingmode vector
attr source rlcThroughputUl
attr title "Throughput at the rlc layer UL"
attr unit Bps
vector 168 Hybrid5GSatNetwork.gnb1.cellularNic.rlc.um rlcPacketLossUl:vector ETV
attr recordingmode vector
attr source rlcPacketLossUl
attr title "rlc Packet Loss"
attr unit ""
vector 169 Hybrid5GSatNetwork.gnb1.cellularNic.rlc.um rlcPacketLossDl:vector ETV
attr recordingmode vector
attr source rlcPacketLossDl
attr title "rlc Packet Loss"
attr unit ""
vector 170 Hybrid5GSatNetwork.gnb1.cellularNic.rlc.um rlcPacketLossTotal:vector ETV
attr recordingmode vector
attr source rlcPacketLossTotal
attr title "rlc Packet Loss"
attr unit ""
vector 171 Hybrid5GSatNetwork.gnb1.cellularNic.rlc.um rlcPduDelayDl:vector ETV
attr recordingmode vector
attr source rlcPduDelayDl
attr title "Delay at the rlc layer UL"
attr unit s
vector 172 Hybrid5GSatNetwork.gnb1.cellularNic.rlc.um rlcPduThroughputDl:vector ETV
attr recordingmode vector
attr source rlcPduThroughputDl
attr title "Throughput at the rlc layer DL"
attr unit Bps
vector 173 Hybrid5GSatNetwork.gnb1.cellularNic.rlc.um rlcPduDelayUl:vector ETV
attr recordingmode vector
attr source rlcPduDelayUl
attr title "Delay at the rlc layer UL"
attr unit s
vector 174 Hybrid5GSatNetwork.gnb1.cellularNic.rlc.um rlcPduThroughputUl:vector ETV
attr recordingmode vector
attr source rlcPduThroughputUl
attr title "Throughput at the rlc layer UL"
attr unit Bps
vector 175 Hybrid5GSatNetwork.gnb1.cellularNic.rlc.um rlcPduPacketLossUl:vector ETV
attr recordingmode vector
attr source rlcPduPacketLossUl
attr title "rlc Packet Loss"
attr unit ""
vector 176 Hybrid5GSatNetwork.gnb1.cellularNic.rlc.um rlcPduPacketLossDl:vector ETV
attr recordingmode vector
attr source rlcPduPacketLossDl
attr title "rlc Packet Loss"
attr unit ""
vector 177 Hybrid5GSatNetwork.gnb1.cellularNic.rlc.um receivedPacketFromUpperLayer:vector(packetBytes) ETV
attr interpolationmode none
attr recordingmode vector(packetBytes)
attr source receivedPacketFromUpperLayer
vector 178 Hybrid5GSatNetwork.gnb1.cellularNic.rlc.um receivedPacketFromLowerLayer:vector(packetBytes) ETV
attr interpolationmode none
attr recordingmode vector(packetBytes)
attr source receivedPacketFromLowerLayer
vector 179 Hybrid5GSatNetwork.gnb1.cellularNic.rlc.um sentPacketToUpperLayer:vector(packetBytes) ETV
attr interpolationmode none
attr recordingmode vector(packetBytes)
attr source sentPacketToUpperLayer
vector 180 Hybrid5GSatNetwork.gnb1.cellularNic.rlc.um sentPacketToLowerLayer:vector(packetBytes) ETV
attr interpolationmode none
attr recordingmode vector(packetBytes)
attr source sentPacketToLowerLayer
vector 181 Hybrid5GSatNetwork.gnb1.cellularNic.rlc.um rlcDelayD2D:vector ETV
attr recordingmode vector
attr source rlcDelayD2D
attr title "Delay at the rlc layer D2D"
attr unit s
vector 182 Hybrid5GSatNetwork.gnb1.cellularNic.rlc.um rlcThroughputD2D:vector ETV
attr recordingmode vector
attr source rlcThroughputD2D
attr title "Throughput at the rlc layer D2D"
attr unit Bps
vector 183 Hybrid5GSatNetwork.gnb1.cellularNic.rlc.um rlcPacketLossD2D:vector ETV
attr recordingmode vector
attr source rlcPacketLossD2D
attr title "rlc Packet Loss"
attr unit ""
vector 184 Hybrid5GSatNetwork.gnb1.cellularNic.rlc.um rlcCellPacketLossD2D:vector ETV
attr recordingmode vector
attr source rlcCellPacketLossD2D
attr title "rlc Cell Packet Loss"
attr unit ""
vector 185 Hybrid5GSatNetwork.gnb1.cellularNic.rlc.um rlcCellThroughputD2D:vector ETV
attr recordingmode vector
attr source rlcCellThroughputD2D
attr title "Cell Throughput at the rlc layer D2D"
attr unit Bps
vector 186 Hybrid5GSatNetwork.gnb1.cellularNic.rlc.um rlcPduDelayD2D:vector ETV
attr recordingmode vector
attr source rlcPduDelayD2D
attr title "Delay at the rlc layer D2D"
attr unit s
vector 187 Hybrid5GSatNetwork.gnb1.cellularNic.rlc.um rlcPduThroughputD2D:vector ETV
attr recordingmode vector
attr source rlcPduThroughputD2D
attr title "Throughput at the rlc layer D2D"
attr unit Bps
vector 188 Hybrid5GSatNetwork.gnb1.cellularNic.rlc.um rlcPduPacketLossD2D:vector ETV
attr recordingmode vector
attr source rlcPduPacketLossD2D
attr title "rlc Packet Loss"
attr unit ""
vector 189 Hybrid5GSatNetwork.gnb1.cellularNic.mac macDelayDl:vector ETV
attr recordingmode vector
attr source macDelayDl
attr title "Delay at the MAC layer UL"
attr unit s
vector 190 Hybrid5GSatNetwork.gnb1.cellularNic.mac macDelayUl:vector ETV
attr recordingmode vector
attr source macDelayUl
attr title "Delay at the MAC layer UL"
attr unit s
vector 191 Hybrid5GSatNetwork.gnb1.cellularNic.mac harqErrorRateUl:vector ETV
attr recordingmode vector
attr source harqErrorRateUl
attr title "Harq Error Rate Ul"
attr unit ""
vector 192 Hybrid5GSatNetwork.gnb1.cellularNic.mac harqErrorRateDl:vector ETV
attr recordingmode vector
attr source harqErrorRateDl
attr title "Harq Error Rate Dl"
attr unit ""
vector 193 Hybrid5GSatNetwork.gnb1.cellularNic.mac harqTxAttemptsDl:vector ETV
attr recordingmode vector
attr source harqTxAttemptsDl
attr title "Harq Tx Attempts Dl"
attr unit ""
vector 194 Hybrid5GSatNetwork.gnb1.cellularNic.mac harqTxAttemptsUl:vector ETV
attr recordingmode vector
attr source harqTxAttemptsUl
attr title "Harq Tx Attempts Ul"
attr unit ""
vector 195 Hybrid5GSatNetwork.gnb1.cellularNic.mac harqErrorRate_1st_Ul:vector ETV
attr recordingmode vector
attr source harqErrorRate_1st_Ul
attr title "Harq Error Rate Ul (1st tx)"
attr unit ""
vector 196 Hybrid5GSatNetwork.gnb1.cellularNic.mac harqErrorRate_1st_Dl:vector ETV
attr recordingmode vector
attr source harqErrorRate_1st_Dl
attr title "Harq Error Rate Dl (1st tx)"
attr unit ""
vector 197 Hybrid5GSatNetwork.gnb1.cellularNic.mac harqErrorRate_2nd_Ul:vector ETV
attr recordingmode vector
attr source harqErrorRate_2nd_Ul
attr title "Harq Error Rate Ul (2nd tx)"
attr unit ""
vector 198 Hybrid5GSatNetwork.gnb1.cellularNic.mac harqErrorRate_2nd_Dl:vector ETV
attr recordingmode vector
attr source harqErrorRate_2nd_Dl
attr title "Harq Error Rate Dl (2nd tx)"
attr unit ""
vector 199 Hybrid5GSatNetwork.gnb1.cellularNic.mac harqErrorRate_3rd_Ul:vector ETV
attr recordingmode vector
attr source harqErrorRate_3rd_Ul
attr title "Harq Error Rate Ul (3rd tx)"
attr unit ""
vector 200 Hybrid5GSatNetwork.gnb1.cellularNic.mac harqErrorRate_3rd_Dl:vector ETV
attr recordingmode vector
attr source harqErrorRate_3rd_Dl
attr title "Harq Error Rate Dl (3rd tx)"
attr unit ""
vector 201 Hybrid5GSatNetwork.gnb1.cellularNic.mac harqErrorRate_4th_Ul:vector ETV
attr recordingmode vector
attr source harqErrorRate_4th_Ul
attr title "Harq Error Rate Ul (4th tx)"
attr unit ""
vector 202 Hybrid5GSatNetwork.gnb1.cellularNic.mac harqErrorRate_4th_Dl:vector ETV
attr recordingmode vector
attr source harqErrorRate_4th_Dl
attr title "Harq Error Rate Dl (4th tx)"
attr unit ""
vector 203 Hybrid5GSatNetwork.gnb1.cellularNic.mac receivedPacketFromUpperLayer:vector(packetBytes) ETV
attr interpolationmode none
attr recordingmode vector(packetBytes)
attr source receivedPacketFromUpperLayer
vector 204 Hybrid5GSatNetwork.gnb1.cellularNic.mac receivedPacketFromLowerLayer:vector(packetBytes) ETV
attr interpolationmode none
attr recordingmode vector(packetBytes)
attr source receivedPacketFromLowerLayer
vector 205 Hybrid5GSatNetwork.gnb1.cellularNic.mac sentPacketToUpperLayer:vector(packetBytes) ETV
attr interpolationmode none
attr recordingmode vector(packetBytes)
attr source sentPacketToUpperLayer
vector 206 Hybrid5GSatNetwork.gnb1.cellularNic.mac sentPacketToLowerLayer:vector(packetBytes) ETV
attr interpolationmode none
attr recordingmode vector(packetBytes)
attr source sentPacketToLowerLayer
vector 207 Hybrid5GSatNetwork.gnb1.cellularNic.mac avgServedBlocksDl:vector ETV
attr recordingmode vector
attr source avgServedBlocksDl
attr title "Average number of allocated Resource Blocks in the Dl"
attr unit blocks
vector 208 Hybrid5GSatNetwork.gnb1.cellularNic.mac avgServedBlocksUl:vector ETV
attr recordingmode vector
attr source avgServedBlocksUl
attr title "Average number of allocated Resource Blocks in the Dl"
attr unit blocks
vector 209 Hybrid5GSatNetwork.gnb1.cellularNic.channelModel[0] rcvdSinrDl:vector ETV
attr recordingmode vector
attr source rcvdSinrDl
attr title "SINR measured at packet reception, DL"
attr unit dB
vector 210 Hybrid5GSatNetwork.gnb1.cellularNic.channelModel[0] rcvdSinrUl:vector ETV
attr recordingmode vector
attr source rcvdSinrUl
attr title "SINR measured at packet reception, UL"
attr unit dB
vector 211 Hybrid5GSatNetwork.gnb1.cellularNic.channelModel[0] rcvdSinrD2D:vector ETV
attr recordingmode vector
attr source rcvdSinrD2D
attr title "SINR measured at packet reception, D2D"
attr unit dB
vector 212 Hybrid5GSatNetwork.gnb1.cellularNic.channelModel[0] measuredSinrDl:vector ETV
attr recordingmode vector
attr source measuredSinrDl
attr title "SINR measured at feedback computation, DL"
attr unit dB
vector 213 Hybrid5GSatNetwork.gnb1.cellularNic.channelModel[0] measuredSinrUl:vector ETV
attr recordingmode vector
attr source measuredSinrUl
attr title "SINR measured at feedback computation, UL"
attr unit dB
vector 214 Hybrid5GSatNetwork.gnb1.cellularNic packetDropInterfaceDown:vector(packetBytes) ETV
attr interpolationmode none
attr recordingmode vector(packetBytes)
attr source packetDropReasonIsInterfaceDown(packetDropped)
attr title "packet drops: interface down, packetBytes"
vector 215 Hybrid5GSatNetwork.gnb1.cellularNic packetDropNoCarrier:vector(packetBytes) ETV
attr interpolationmode none
attr recordingmode vector(packetBytes)
attr source packetDropReasonIsNoCarrier(packetDropped)
attr title "packet drops: no carrier, packetBytes"
vector 216 Hybrid5GSatNetwork.gnb1.pppIf.queue queueLength:vector ETV
attr autoWarmupFilter false
attr interpolationmode sample-hold
attr recordingmode vector
attr source "warmup(atomic(constant0(packetPushEnded) + count(packetPushStarted) - count(packetPulled) - count(packetRemoved) - count(packetDropped)))"
attr title "queue length"
attr unit pk
vector 217 Hybrid5GSatNetwork.gnb1.pppIf.queue queueBitLength:vector ETV
attr autoWarmupFilter false
attr interpolationmode sample-hold
attr recordingmode vector
attr source "warmup(atomic(constant0(packetPushEnded) + sum(packetLength(packetPushStarted)) - sum(packetLength(packetPulled)) - sum(packetLength(packetRemoved)) - sum(packetLength(packetDropped))))"
attr title "queue bit length"
attr unit b
vector 218 Hybrid5GSatNetwork.gnb1.pppIf.queue queueingTime:vector ETV
attr interpolationmode none
attr recordingmode vector
attr source queueingTime(packetPulled)
attr title "queueing times"
attr unit s
vector 219 Hybrid5GSatNetwork.gnb1.pppIf.queue incomingPacketLengths:vector ETV
attr interpolationmode none
attr recordingmode vector
attr source packetLength(packetPushStarted)
attr title "incoming packet lengths"
attr unit b
vector 220 Hybrid5GSatNetwork.gnb1.pppIf.queue incomingDataRate:vector ETV
attr interpolationmode linear
attr recordingmode vector
attr source throughput(packetPushStarted)
attr title "incoming datarate"
attr unit bps
vector 221 Hybrid5GSatNetwork.gnb1.pppIf.queue outgoingPacketLengths:vector ETV
attr interpolationmode none
attr recordingmode vector
attr source packetLength(packetPulled)
attr title "outgoing packet lengths"
attr unit b
vector 222 Hybrid5GSatNetwork.gnb1.pppIf.queue outgoingDataRate:vector ETV
attr interpolationmode linear
attr recordingmode vector
attr source throughput(packetPulled)
attr title "outgoing datarate"
attr unit bps
vector 223 Hybrid5GSatNetwork.gnb1.pppIf.queue droppedPacketLengthsQueueOverflow:vector ETV
attr interpolationmode none
attr recordingmode vector
attr source packetLength(packetDropReasonIsQueueOverflow(packetDropped))
attr title "dropped packet lengths: queue overflow"
attr unit b
vector 224 Hybrid5GSatNetwork.gnb1.pppIf.queue flowQueueingTime:vector ETV
attr interpolationmode none
attr recordingmode vector
attr source queueingTime(demuxFlow(packetPulled))
attr title "flow queueing times"
attr unit s
vector 225 Hybrid5GSatNetwork.gnb1.pppIf.queue flowIncomingDataRate:vector ETV
attr interpolationmode linear
attr recordingmode vector
attr source throughput(flowPacketLength(demuxFlow(packetPushStarted)))
attr title "flow specific incoming data rate"
attr unit bps
vector 226 Hybrid5GSatNetwork.gnb1.pppIf.queue flowOutgoingDataRate:vector ETV
attr interpolationmode linear
attr recordingmode vector
attr source throughput(flowPacketLength(demuxFlow(packetPulled)))
attr title "flow specific outgoing data rate"
attr unit bps
vector 227 Hybrid5GSatNetwork.gnb1.pppIf.ppp transmissionState:vector ETV
attr interpolationmode sample-hold
attr recordingmode vector
attr source transmissionStateChanged
attr title "tx state"
vector 228 Hybrid5GSatNetwork.gnb1.pppIf.ppp txPk:vector(packetBytes) ETV
attr interpolationmode none
attr recordingmode vector(packetBytes)
attr source packetSentToLower
attr title "packets transmitted, packetBytes"
vector 229 Hybrid5GSatNetwork.gnb1.pppIf.ppp rxPkOk:vector(packetBytes) ETV
attr interpolationmode none
attr recordingmode vector(packetBytes)
attr source rxPkOk
attr title "packets received OK, packetBytes"
vector 230 Hybrid5GSatNetwork.gnb1.pppIf.ppp packetDropIncorrectlyReceived:vector(packetBytes) ETV
attr interpolationmode none
attr recordingmode vector(packetBytes)
attr source packetDropReasonIsIncorrectlyReceived(packetDropped)
attr title "packet drop: incorrectly received, packetBytes"
vector 231 Hybrid5GSatNetwork.gnb1.pppIf.ppp packetDropInterfaceDown:vector(packetBytes) ETV
attr interpolationmode none
attr recordingmode vector(packetBytes)
attr source packetDropReasonIsInterfaceDown(packetDropped)
attr title "packet drop: interface down, packetBytes"
vector 232 Hybrid5GSatNetwork.gnb1.pppIf.ppp rcvdPkFromHl:vector(packetBytes) ETV
attr interpolationmode none
attr recordingmode vector(packetBytes)
attr source packetReceivedFromUpper
attr title "packets received from higher layer, packetBytes"
vector 233 Hybrid5GSatNetwork.gnb1.pppIf.ppp passedUpPk:vector(packetBytes) ETV
attr interpolationmode none
attr recordingmode vector(packetBytes)
attr source packetSentToUpper
attr title "packets passed to higher layer, packetBytes"
vector 234 Hybrid5GSatNetwork.gnb1.pppIf packetDropInterfaceDown:vector(packetBytes) ETV
attr interpolationmode none
attr recordingmode vector(packetBytes)
attr source packetDropReasonIsInterfaceDown(packetDropped)
attr title "packet drops: interface down, packetBytes"
vector 235 Hybrid5GSatNetwork.gnb1.pppIf packetDropNoCarrier:vector(packetBytes) ETV
attr interpolationmode none
attr recordingmode vector(packetBytes)
attr source packetDropReasonIsNoCarrier(packetDropped)
attr title "packet drops: no carrier, packetBytes"
vector 236 Hybrid5GSatNetwork.gnb1.pppMEHostIf.queue queueLength:vector ETV
attr autoWarmupFilter false
attr interpolationmode sample-hold
attr recordingmode vector
attr source "warmup(atomic(constant0(packetPushEnded) + count(packetPushStarted) - count(packetPulled) - count(packetRemoved) - count(packetDropped)))"
attr title "queue length"
attr unit pk
vector 237 Hybrid5GSatNetwork.gnb1.pppMEHostIf.queue queueBitLength:vector ETV
attr autoWarmupFilter false
attr interpolationmode sample-hold
attr recordingmode vector
attr source "warmup(atomic(constant0(packetPushEnded) + sum(packetLength(packetPushStarted)) - sum(packetLength(packetPulled)) - sum(packetLength(packetRemoved)) - sum(packetLength(packetDropped))))"
attr title "queue bit length"
attr unit b
vector 238 Hybrid5GSatNetwork.gnb1.pppMEHostIf.queue queueingTime:vector ETV
attr interpolationmode none
attr recordingmode vector
attr source queueingTime(packetPulled)
attr title "queueing times"
attr unit s
vector 239 Hybrid5GSatNetwork.gnb1.pppMEHostIf.queue incomingPacketLengths:vector ETV
attr interpolationmode none
attr recordingmode vector
attr source packetLength(packetPushStarted)
attr title "incoming packet lengths"
attr unit b
vector 240 Hybrid5GSatNetwork.gnb1.pppMEHostIf.queue incomingDataRate:vector ETV
attr interpolationmode linear
attr recordingmode vector
attr source throughput(packetPushStarted)
attr title "incoming datarate"
attr unit bps
vector 241 Hybrid5GSatNetwork.gnb1.pppMEHostIf.queue outgoingPacketLengths:vector ETV
attr interpolationmode none
attr recordingmode vector
attr source packetLength(packetPulled)
attr title "outgoing packet lengths"
attr unit b
vector 242 Hybrid5GSatNetwork.gnb1.pppMEHostIf.queue outgoingDataRate:vector ETV
attr interpolationmode linear
attr recordingmode vector
attr source throughput(packetPulled)
attr title "outgoing datarate"
attr unit bps
vector 243 Hybrid5GSatNetwork.gnb1.pppMEHostIf.queue droppedPacketLengthsQueueOverflow:vector ETV
attr interpolationmode none
attr recordingmode vector
attr source packetLength(packetDropReasonIsQueueOverflow(packetDropped))
attr title "dropped packet lengths: queue overflow"
attr unit b
vector 244 Hybrid5GSatNetwork.gnb1.pppMEHostIf.queue flowQueueingTime:vector ETV
attr interpolationmode none
attr recordingmode vector
attr source queueingTime(demuxFlow(packetPulled))
attr title "flow queueing times"
attr unit s
vector 245 Hybrid5GSatNetwork.gnb1.pppMEHostIf.queue flowIncomingDataRate:vector ETV
attr interpolationmode linear
attr recordingmode vector
attr source throughput(flowPacketLength(demuxFlow(packetPushStarted)))
attr title "flow specific incoming data rate"
attr unit bps
vector 246 Hybrid5GSatNetwork.gnb1.pppMEHostIf.queue flowOutgoingDataRate:vector ETV
attr interpolationmode linear
attr recordingmode vector
attr source throughput(flowPacketLength(demuxFlow(packetPulled)))
attr title "flow specific outgoing data rate"
attr unit bps
vector 247 Hybrid5GSatNetwork.gnb1.pppMEHostIf.ppp transmissionState:vector ETV
attr interpolationmode sample-hold
attr recordingmode vector
attr source transmissionStateChanged
attr title "tx state"
vector 248 Hybrid5GSatNetwork.gnb1.pppMEHostIf.ppp txPk:vector(packetBytes) ETV
attr interpolationmode none
attr recordingmode vector(packetBytes)
attr source packetSentToLower
attr title "packets transmitted, packetBytes"
vector 249 Hybrid5GSatNetwork.gnb1.pppMEHostIf.ppp rxPkOk:vector(packetBytes) ETV
attr interpolationmode none
attr recordingmode vector(packetBytes)
attr source rxPkOk
attr title "packets received OK, packetBytes"
vector 250 Hybrid5GSatNetwork.gnb1.pppMEHostIf.ppp packetDropIncorrectlyReceived:vector(packetBytes) ETV
attr interpolationmode none
attr recordingmode vector(packetBytes)
attr source packetDropReasonIsIncorrectlyReceived(packetDropped)
attr title "packet drop: incorrectly received, packetBytes"
vector 251 Hybrid5GSatNetwork.gnb1.pppMEHostIf.ppp packetDropInterfaceDown:vector(packetBytes) ETV
attr interpolationmode none
attr recordingmode vector(packetBytes)
attr source packetDropReasonIsInterfaceDown(packetDropped)
attr title "packet drop: interface down, packetBytes"
vector 252 Hybrid5GSatNetwork.gnb1.pppMEHostIf.ppp rcvdPkFromHl:vector(packetBytes) ETV
attr interpolationmode none
attr recordingmode vector(packetBytes)
attr source packetReceivedFromUpper
attr title "packets received from higher layer, packetBytes"
vector 253 Hybrid5GSatNetwork.gnb1.pppMEHostIf.ppp passedUpPk:vector(packetBytes) ETV
attr interpolationmode none
attr recordingmode vector(packetBytes)
attr source packetSentToUpper
attr title "packets passed to higher layer, packetBytes"
vector 254 Hybrid5GSatNetwork.gnb1.pppMEHostIf packetDropInterfaceDown:vector(packetBytes) ETV
attr interpolationmode none
attr recordingmode vector(packetBytes)
attr source packetDropReasonIsInterfaceDown(packetDropped)
attr title "packet drops: interface down, packetBytes"
vector 255 Hybrid5GSatNetwork.gnb1.pppMEHostIf packetDropNoCarrier:vector(packetBytes) ETV
attr interpolationmode none
attr recordingmode vector(packetBytes)
attr source packetDropReasonIsNoCarrier(packetDropped)
attr title "packet drops: no carrier, packetBytes"
vector 256 Hybrid5GSatNetwork.gnb1.ipv4.ip packetDropAddressResolutionFailed:vector(packetBytes) ETV
attr interpolationmode none
attr recordingmode vector(packetBytes)
attr source packetDropReasonIsAddressResolutionFailed(packetDropped)
attr title "packet drop: address resolution failed, packetBytes"
vector 257 Hybrid5GSatNetwork.gnb1.ipv4.ip packetDropHopLimitReached:vector(packetBytes) ETV
attr interpolationmode none
attr recordingmode vector(packetBytes)
attr source packetDropReasonIsHopLimitReached(packetDropped)
attr title "packet drop: hop limit reached, packetBytes"
vector 258 Hybrid5GSatNetwork.gnb1.ipv4.ip packetDropForwardingDisabled:vector(packetBytes) ETV
attr interpolationmode none
attr recordingmode vector(packetBytes)
attr source packetDropReasonIsForwardingDisabled(packetDropped)
attr title "packet drop: forwarding disabled, packetBytes"
vector 259 Hybrid5GSatNetwork.gnb1.ipv4.ip packetDropNoInterfaceFound:vector(packetBytes) ETV
attr interpolationmode none
attr recordingmode vector(packetBytes)
attr source packetDropReasonIsNoInterfaceFound(packetDropped)
attr title "packet drop: no interface found, packetBytes"
vector 260 Hybrid5GSatNetwork.gnb1.ipv4.ip packetDropNoRouteFound:vector(packetBytes) ETV
attr interpolationmode none
attr recordingmode vector(packetBytes)
attr source packetDropReasonIsNoRouteFound(packetDropped)
attr title "packet drop: no route found, packetBytes"
vector 261 Hybrid5GSatNetwork.gnb1.ipv4.ip packetDropUndefined:vector(packetBytes) ETV
attr interpolationmode none
attr recordingmode vector(packetBytes)
attr source packetDropReasonIsUndefined(packetDropped)
attr title "packet drop: undefined, packetBytes"
vector 262 Hybrid5GSatNetwork.gnb1.ipv4.arp arpRequestSent:vector(packetBytes) ETV
attr recordingmode vector(packetBytes)
attr source arpRequestSent
attr title "ARP request sent, packetBytes"
vector 263 Hybrid5GSatNetwork.gnb1.ipv4.arp arpReplySent:vector(packetBytes) ETV
attr recordingmode vector(packetBytes)
attr source arpReplySent
attr title "ARP replies sent, packetBytes"
vector 264 Hybrid5GSatNetwork.gnb1.udp packetSent:vector(packetBytes) ETV
attr interpolationmode none
attr recordingmode vector(packetBytes)
attr source packetSent
attr title "packets sent, packetBytes"
vector 265 Hybrid5GSatNetwork.gnb1.udp packetReceived:vector(packetBytes) ETV
attr interpolationmode none
attr recordingmode vector(packetBytes)
attr source packetReceived
attr title "packets received, packetBytes"
vector 266 Hybrid5GSatNetwork.gnb1.udp passedUpPk:vector(count) ETV
attr interpolationmode none
attr recordingmode vector(count)
attr source packetSentToUpper
attr title "packets passed up, count"
vector 267 Hybrid5GSatNetwork.gnb1.udp droppedPkWrongPort:vector(count) ETV
attr interpolationmode none
attr recordingmode vector(count)
attr source packetDropReasonIsNoPortFound(packetDropped)
attr title "packets dropped (wrong port), count"
vector 268 Hybrid5GSatNetwork.gnb1.udp droppedPkBadChecksum:vector(count) ETV
attr interpolationmode none
attr recordingmode vector(count)
attr source packetDropReasonIsIncorrectlyReceived(packetDropped)
attr title "packets dropped (checksum error), count"
vector 269 Hybrid5GSatNetwork.gnb2.cellularNic.pdcpRrc receivedPacketFromUpperLayer:vector(packetBytes) ETV
attr interpolationmode none
attr recordingmode vector(packetBytes)
attr source receivedPacketFromUpperLayer
vector 270 Hybrid5GSatNetwork.gnb2.cellularNic.pdcpRrc receivedPacketFromLowerLayer:vector(packetBytes) ETV
attr interpolationmode none
attr recordingmode vector(packetBytes)
attr source receivedPacketFromLowerLayer
vector 271 Hybrid5GSatNetwork.gnb2.cellularNic.pdcpRrc sentPacketToUpperLayer:vector(packetBytes) ETV
attr interpolationmode none
attr recordingmode vector(packetBytes)
attr source sentPacketToUpperLayer
vector 272 Hybrid5GSatNetwork.gnb2.cellularNic.pdcpRrc sentPacketToLowerLayer:vector(packetBytes) ETV
attr interpolationmode none
attr recordingmode vector(packetBytes)
attr source sentPacketToLowerLayer
vector 273 Hybrid5GSatNetwork.gnb2.cellularNic.rlc.tm rlcPacketLossUl:vector ETV
attr recordingmode vector
attr source rlcPacketLossUl
attr title "rlc Packet Loss"
attr unit ""
vector 274 Hybrid5GSatNetwork.gnb2.cellularNic.rlc.tm rlcPacketLossDl:vector ETV
attr recordingmode vector
attr source rlcPacketLossDl
attr title "rlc Packet Loss"
attr unit ""
vector 275 Hybrid5GSatNetwork.gnb2.cellularNic.rlc.tm receivedPacketFromUpperLayer:vector(packetBytes) ETV
attr interpolationmode none
attr recordingmode vector(packetBytes)
attr source receivedPacketFromUpperLayer
vector 276 Hybrid5GSatNetwork.gnb2.cellularNic.rlc.tm receivedPacketFromLowerLayer:vector(packetBytes) ETV
attr interpolationmode none
attr recordingmode vector(packetBytes)
attr source receivedPacketFromLowerLayer
vector 277 Hybrid5GSatNetwork.gnb2.cellularNic.rlc.tm sentPacketToUpperLayer:vector(packetBytes) ETV
attr interpolationmode none
attr recordingmode vector(packetBytes)
attr source sentPacketToUpperLayer
vector 278 Hybrid5GSatNetwork.gnb2.cellularNic.rlc.tm sentPacketToLowerLayer:vector(packetBytes) ETV
attr interpolationmode none
attr recordingmode vector(packetBytes)
attr source sentPacketToLowerLayer
vector 279 Hybrid5GSatNetwork.gnb2.cellularNic.rlc.um rlcDelayDl:vector ETV
attr recordingmode vector
attr source rlcDelayDl
attr title "Delay at the rlc layer DL"
attr unit s
vector 280 Hybrid5GSatNetwork.gnb2.cellularNic.rlc.um rlcThroughputDl:vector ETV
attr recordingmode vector
attr source rlcThroughputDl
attr title "Throughput at the rlc layer DL"
attr unit Bps
vector 281 Hybrid5GSatNetwork.gnb2.cellularNic.rlc.um rlcDelayUl:vector ETV
attr recordingmode vector
attr source rlcDelayUl
attr title "Delay at the rlc layer UL"
attr unit s
vector 282 Hybrid5GSatNetwork.gnb2.cellularNic.rlc.um rlcThroughputUl:vector ETV
attr recordingmode vector
attr source rlcThroughputUl
attr title "Throughput at the rlc layer UL"
attr unit Bps
vector 283 Hybrid5GSatNetwork.gnb2.cellularNic.rlc.um rlcPacketLossUl:vector ETV
attr recordingmode vector
attr source rlcPacketLossUl
attr title "rlc Packet Loss"
attr unit ""
vector 284 Hybrid5GSatNetwork.gnb2.cellularNic.rlc.um rlcPacketLossDl:vector ETV
attr recordingmode vector
attr source rlcPacketLossDl
attr title "rlc Packet Loss"
attr unit ""
vector 285 Hybrid5GSatNetwork.gnb2.cellularNic.rlc.um rlcPacketLossTotal:vector ETV
attr recordingmode vector
attr source rlcPacketLossTotal
attr title "rlc Packet Loss"
attr unit ""
vector 286 Hybrid5GSatNetwork.gnb2.cellularNic.rlc.um rlcPduDelayDl:vector ETV
attr recordingmode vector
attr source rlcPduDelayDl
attr title "Delay at the rlc layer UL"
attr unit s
vector 287 Hybrid5GSatNetwork.gnb2.cellularNic.rlc.um rlcPduThroughputDl:vector ETV
attr recordingmode vector
attr source rlcPduThroughputDl
attr title "Throughput at the rlc layer DL"
attr unit Bps
vector 288 Hybrid5GSatNetwork.gnb2.cellularNic.rlc.um rlcPduDelayUl:vector ETV
attr recordingmode vector
attr source rlcPduDelayUl
attr title "Delay at the rlc layer UL"
attr unit s
vector 289 Hybrid5GSatNetwork.gnb2.cellularNic.rlc.um rlcPduThroughputUl:vector ETV
attr recordingmode vector
attr source rlcPduThroughputUl
attr title "Throughput at the rlc layer UL"
attr unit Bps
vector 290 Hybrid5GSatNetwork.gnb2.cellularNic.rlc.um rlcPduPacketLossUl:vector ETV
attr recordingmode vector
attr source rlcPduPacketLossUl
attr title "rlc Packet Loss"
attr unit ""
vector 291 Hybrid5GSatNetwork.gnb2.cellularNic.rlc.um rlcPduPacketLossDl:vector ETV
attr recordingmode vector
attr source rlcPduPacketLossDl
attr title "rlc Packet Loss"
attr unit ""
vector 292 Hybrid5GSatNetwork.gnb2.cellularNic.rlc.um receivedPacketFromUpperLayer:vector(packetBytes) ETV
attr interpolationmode none
attr recordingmode vector(packetBytes)
attr source receivedPacketFromUpperLayer
vector 293 Hybrid5GSatNetwork.gnb2.cellularNic.rlc.um receivedPacketFromLowerLayer:vector(packetBytes) ETV
attr interpolationmode none
attr recordingmode vector(packetBytes)
attr source receivedPacketFromLowerLayer
vector 294 Hybrid5GSatNetwork.gnb2.cellularNic.rlc.um sentPacketToUpperLayer:vector(packetBytes) ETV
attr interpolationmode none
attr recordingmode vector(packetBytes)
attr source sentPacketToUpperLayer
vector 295 Hybrid5GSatNetwork.gnb2.cellularNic.rlc.um sentPacketToLowerLayer:vector(packetBytes) ETV
attr interpolationmode none
attr recordingmode vector(packetBytes)
attr source sentPacketToLowerLayer
vector 296 Hybrid5GSatNetwork.gnb2.cellularNic.rlc.um rlcDelayD2D:vector ETV
attr recordingmode vector
attr source rlcDelayD2D
attr title "Delay at the rlc layer D2D"
attr unit s
vector 297 Hybrid5GSatNetwork.gnb2.cellularNic.rlc.um rlcThroughputD2D:vector ETV
attr recordingmode vector
attr source rlcThroughputD2D
attr title "Throughput at the rlc layer D2D"
attr unit Bps
vector 298 Hybrid5GSatNetwork.gnb2.cellularNic.rlc.um rlcPacketLossD2D:vector ETV
attr recordingmode vector
attr source rlcPacketLossD2D
attr title "rlc Packet Loss"
attr unit ""
vector 299 Hybrid5GSatNetwork.gnb2.cellularNic.rlc.um rlcCellPacketLossD2D:vector ETV
attr recordingmode vector
attr source rlcCellPacketLossD2D
attr title "rlc Cell Packet Loss"
attr unit ""
vector 300 Hybrid5GSatNetwork.gnb2.cellularNic.rlc.um rlcCellThroughputD2D:vector ETV
attr recordingmode vector
attr source rlcCellThroughputD2D
attr title "Cell Throughput at the rlc layer D2D"
attr unit Bps
vector 301 Hybrid5GSatNetwork.gnb2.cellularNic.rlc.um rlcPduDelayD2D:vector ETV
attr recordingmode vector
attr source rlcPduDelayD2D
attr title "Delay at the rlc layer D2D"
attr unit s
vector 302 Hybrid5GSatNetwork.gnb2.cellularNic.rlc.um rlcPduThroughputD2D:vector ETV
attr recordingmode vector
attr source rlcPduThroughputD2D
attr title "Throughput at the rlc layer D2D"
attr unit Bps
vector 303 Hybrid5GSatNetwork.gnb2.cellularNic.rlc.um rlcPduPacketLossD2D:vector ETV
attr recordingmode vector
attr source rlcPduPacketLossD2D
attr title "rlc Packet Loss"
attr unit ""
vector 304 Hybrid5GSatNetwork.gnb2.cellularNic.mac macDelayDl:vector ETV
attr recordingmode vector
attr source macDelayDl
attr title "Delay at the MAC layer UL"
attr unit s
vector 305 Hybrid5GSatNetwork.gnb2.cellularNic.mac macDelayUl:vector ETV
attr recordingmode vector
attr source macDelayUl
attr title "Delay at the MAC layer UL"
attr unit s
vector 306 Hybrid5GSatNetwork.gnb2.cellularNic.mac harqErrorRateUl:vector ETV
attr recordingmode vector
attr source harqErrorRateUl
attr title "Harq Error Rate Ul"
attr unit ""
vector 307 Hybrid5GSatNetwork.gnb2.cellularNic.mac harqErrorRateDl:vector ETV
attr recordingmode vector
attr source harqErrorRateDl
attr title "Harq Error Rate Dl"
attr unit ""
vector 308 Hybrid5GSatNetwork.gnb2.cellularNic.mac harqTxAttemptsDl:vector ETV
attr recordingmode vector
attr source harqTxAttemptsDl
attr title "Harq Tx Attempts Dl"
attr unit ""
vector 309 Hybrid5GSatNetwork.gnb2.cellularNic.mac harqTxAttemptsUl:vector ETV
attr recordingmode vector
attr source harqTxAttemptsUl
attr title "Harq Tx Attempts Ul"
attr unit ""
vector 310 Hybrid5GSatNetwork.gnb2.cellularNic.mac harqErrorRate_1st_Ul:vector ETV
attr recordingmode vector
attr source harqErrorRate_1st_Ul
attr title "Harq Error Rate Ul (1st tx)"
attr unit ""
vector 311 Hybrid5GSatNetwork.gnb2.cellularNic.mac harqErrorRate_1st_Dl:vector ETV
attr recordingmode vector
attr source harqErrorRate_1st_Dl
attr title "Harq Error Rate Dl (1st tx)"
attr unit ""
vector 312 Hybrid5GSatNetwork.gnb2.cellularNic.mac harqErrorRate_2nd_Ul:vector ETV
attr recordingmode vector
attr source harqErrorRate_2nd_Ul
attr title "Harq Error Rate Ul (2nd tx)"
attr unit ""
vector 313 Hybrid5GSatNetwork.gnb2.cellularNic.mac harqErrorRate_2nd_Dl:vector ETV
attr recordingmode vector
attr source harqErrorRate_2nd_Dl
attr title "Harq Error Rate Dl (2nd tx)"
attr unit ""
vector 314 Hybrid5GSatNetwork.gnb2.cellularNic.mac harqErrorRate_3rd_Ul:vector ETV
attr recordingmode vector
attr source harqErrorRate_3rd_Ul
attr title "Harq Error Rate Ul (3rd tx)"
attr unit ""
vector 315 Hybrid5GSatNetwork.gnb2.cellularNic.mac harqErrorRate_3rd_Dl:vector ETV
attr recordingmode vector
attr source harqErrorRate_3rd_Dl
attr title "Harq Error Rate Dl (3rd tx)"
attr unit ""
vector 316 Hybrid5GSatNetwork.gnb2.cellularNic.mac harqErrorRate_4th_Ul:vector ETV
attr recordingmode vector
attr source harqErrorRate_4th_Ul
attr title "Harq Error Rate Ul (4th tx)"
attr unit ""
vector 317 Hybrid5GSatNetwork.gnb2.cellularNic.mac harqErrorRate_4th_Dl:vector ETV
attr recordingmode vector
attr source harqErrorRate_4th_Dl
attr title "Harq Error Rate Dl (4th tx)"
attr unit ""
vector 318 Hybrid5GSatNetwork.gnb2.cellularNic.mac receivedPacketFromUpperLayer:vector(packetBytes) ETV
attr interpolationmode none
attr recordingmode vector(packetBytes)
attr source receivedPacketFromUpperLayer
vector 319 Hybrid5GSatNetwork.gnb2.cellularNic.mac receivedPacketFromLowerLayer:vector(packetBytes) ETV
attr interpolationmode none
attr recordingmode vector(packetBytes)
attr source receivedPacketFromLowerLayer
vector 320 Hybrid5GSatNetwork.gnb2.cellularNic.mac sentPacketToUpperLayer:vector(packetBytes) ETV
attr interpolationmode none
attr recordingmode vector(packetBytes)
attr source sentPacketToUpperLayer
vector 321 Hybrid5GSatNetwork.gnb2.cellularNic.mac sentPacketToLowerLayer:vector(packetBytes) ETV
attr interpolationmode none
attr recordingmode vector(packetBytes)
attr source sentPacketToLowerLayer
vector 322 Hybrid5GSatNetwork.gnb2.cellularNic.mac avgServedBlocksDl:vector ETV
attr recordingmode vector
attr source avgServedBlocksDl
attr title "Average number of allocated Resource Blocks in the Dl"
attr unit blocks
vector 323 Hybrid5GSatNetwork.gnb2.cellularNic.mac avgServedBlocksUl:vector ETV
attr recordingmode vector
attr source avgServedBlocksUl
attr title "Average number of allocated Resource Blocks in the Dl"
attr unit blocks
vector 324 Hybrid5GSatNetwork.gnb2.cellularNic.channelModel[0] rcvdSinrDl:vector ETV
attr recordingmode vector
attr source rcvdSinrDl
attr title "SINR measured at packet reception, DL"
attr unit dB
vector 325 Hybrid5GSatNetwork.gnb2.cellularNic.channelModel[0] rcvdSinrUl:vector ETV
attr recordingmode vector
attr source rcvdSinrUl
attr title "SINR measured at packet reception, UL"
attr unit dB
vector 326 Hybrid5GSatNetwork.gnb2.cellularNic.channelModel[0] rcvdSinrD2D:vector ETV
attr recordingmode vector
attr source rcvdSinrD2D
[...]
5881	2748167 18 2264 2264 0.072 0.072 1 0 0 0 0
5911	2748185 18 2264 2264 0.072 0.072 1 0 0 0 0
5926	2748203 18 2264 2264 0.072 0.072 1 0 0 0 0
5928	2748221 18 2264 2264 0.072 0.072 1 0 0 0 0
5958	2748239 18 2264 2264 0.072 0.072 1 0 0 0 0
5973	2748257 18 2264 2264 0.072 0.072 1 0 0 0 0
5975	2748275 18 2264 2264 0.072 0.072 1 0 0 0 0
6005	2748293 18 2264 2264 0.072 0.072 1 0 0 0 0
6020	2748311 18 2264 2264 0.072 0.072 1 0 0 0 0
6022	2748329 18 2264 2264 0.072 0.072 1 0 0 0 0
6052	2748347 18 2264 2264 0.072 0.072 1 0 0 0 0
6067	2748365 18 2264 2264 0.072 0.072 1 0 0 0 0
6069	2748383 18 2264 2264 0.072 0.072 1 0 0 0 0
6099	2748401 18 2264 2264 0.072 0.072 1 0 0 0 0
6114	2748419 18 2264 2264 0.072 0.072 1 0 0 0 0
6116	2748437 18 2264 2264 0.072 0.072 1 0 0 0 0
6146	2748455 18 2264 2264 0.072 0.072 1 0 0 0 0
6161	2748473 18 2264 2264 0.072 0.072 1 0 0 0 0
6163	2748491 18 2264 2264 0.072 0.072 1 0 0 0 0
6193	2748509 18 2264 2264 0.072 0.072 1 0 0 0 0
6208	2748527 18 2264 2264 0.072 0.072 1 0 0 0 0
6210	2748545 18 2264 2264 0.072 0.072 1 0 0 0 0
6240	2748563 18 2264 2264 0.072 0.072 1 0 0 0 0
6255	2748581 18 2264 2264 0.072 0.072 1 0 0 0 0
6257	2748599 18 2264 2264 0.072 0.072 1 0 0 0 0
6287	2748617 18 2264 2264 0.072 0.072 1 0 0 0 0
6302	2748635 18 2264 2264 0.072 0.072 1 0 0 0 0
6304	2748653 18 2264 2264 0.072 0.072 1 0 0 0 0
6334	2748671 18 2264 2264 0.072 0.072 1 0 0 0 0
6349	2748689 18 2264 2264 0.072 0.072 1 0 0 0 0
6351	2748707 18 2264 2264 0.072 0.072 1 0 0 0 0
6381	2748725 18 2264 2264 0.072 0.072 1 0 0 0 0
6396	2748743 18 2264 2264 0.072 0.072 1 0 0 0 0
6398	2748761 18 2264 2264 0.072 0.072 1 0 0 0 0
6428	2748779 18 2264 2264 0.072 0.072 1 0 0 0 0
6443	2748797 18 2264 2264 0.072 0.072 1 0 0 0 0
6445	2748815 18 2264 2264 0.072 0.072 1 0 0 0 0
6475	2748833 18 2264 2264 0.072 0.072 1 0 0 0 0
6490	2748851 18 2264 2264 0.072 0.072 1 0 0 0 0
6492	2748869 18 2264 2264 0.072 0.072 1 0 0 0 0
6522	2748887 18 2264 2264 0.072 0.072 1 0 0 0 0
6537	2748905 18 2264 2264 0.072 0.072 1 0 0 0 0
6539	2748923 18 2264 2264 0.072 0.072 1 0 0 0 0
6569	2748941 18 2264 2264 0.072 0.072 1 0 0 0 0
6584	2748959 18 2264 2264 0.072 0.072 1 0 0 0 0
6586	2748977 18 2264 2264 0.072 0.072 1 0 0 0 0
6616	2748995 18 2264 2264 0.072 0.072 1 0 0 0 0
6631	2749013 18 2264 2264 0.072 0.072 1 0 0 0 0
6633	2749031 18 2264 2264 0.072 0.072 1 0 0 0 0
6663	2749049 18 2264 2264 0.072 0.072 1 0 0 0 0
6678	2749067 18 2264 2264 0.072 0.072 1 0 0 0 0
6680	2749085 18 2264 2264 0.072 0.072 1 0 0 0 0
6710	2749103 18 2264 2264 0.072 0.072 1 0 0 0 0
6725	2749121 18 2264 2264 0.072 0.072 1 0 0 0 0
6727	2749139 18 2264 2264 0.072 0.072 1 0 0 0 0
6757	2749157 18 2264 2264 0.072 0.072 1 0 0 0 0
6772	2749175 18 2264 2264 0.072 0.072 1 0 0 0 0
6774	2749193 18 2264 2264 0.072 0.072 1 0 0 0 0
6804	2749211 18 2264 2264 0.072 0.072 1 0 0 0 0
6819	2749229 18 2264 2264 0.072 0.072 1 0 0 0 0
6821	2749247 18 2264 2264 0.072 0.072 1 0 0 0 0
6851	2749265 18 2264 2264 0.072 0.072 1 0 0 0 0
6866	2749283 18 2264 2264 0.072 0.072 1 0 0 0 0
6868	2749301 18 2264 2264 0.072 0.072 1 0 0 0 0
6898	2749319 18 2264 2264 0.072 0.072 1 0 0 0 0
6913	2749337 18 2264 2264 0.072 0.072 1 0 0 0 0
6915	2749355 18 2264 2264 0.072 0.072 1 0 0 0 0
6945	2749373 18 2264 2264 0.072 0.072 1 0 0 0 0
6960	2749391 18 2264 2264 0.072 0.072 1 0 0 0 0
6962	2749409 18 2264 2264 0.072 0.072 1 0 0 0 0
6992	2749427 18 2264 2264 0.072 0.072 1 0 0 0 0
7007	2749445 18 2264 2264 0.072 0.072 1 0 0 0 0
7009	2749463 18 2264 2264 0.072 0.072 1 0 0 0 0
7039	2749481 18 2264 2264 0.072 0.072 1 0 0 0 0
7054	2749499 18 2264 2264 0.072 0.072 1 0 0 0 0
7056	2749517 18 2264 2264 0.072 0.072 1 0 0 0 0
7086	2749535 18 2264 2264 0.072 0.072 1 0 0 0 0
7101	2749553 18 2264 2264 0.072 0.072 1 0 0 0 0
7103	2749571 18 2264 2264 0.072 0.072 1 0 0 0 0
7133	2749589 18 2264 2264 0.072 0.072 1 0 0 0 0
7148	2749607 18 2264 2264 0.072 0.072 1 0 0 0 0
7150	2749625 18 2264 2264 0.072 0.072 1 0 0 0 0
7180	2749643 18 2264 2264 0.072 0.072 1 0 0 0 0
7195	2749661 18 2264 2264 0.072 0.072 1 0 0 0 0
7197	2749679 18 2264 2264 0.072 0.072 1 0 0 0 0
7215	2749697 18 2264 2264 0.072 0.072 1 0 0 0 0
7217	2749715 18 2264 2264 0.072 0.072 1 0 0 0 0
7235	2749733 18 2264 2264 0.072 0.072 1 0 0 0 0
7237	2749751 18 2264 2264 0.072 0.072 1 0 0 0 0
7255	2749769 18 2264 2264 0.072 0.072 1 0 0 0 0
7257	2749787 18 2264 2264 0.072 0.072 1 0 0 0 0
7292	2749805 18 2264 2264 0.072 0.072 1 0 0 0 0
7294	2749823 18 2264 2264 0.072 0.072 1 0 0 0 0
7312	2749841 18 2264 2264 0.072 0.072 1 0 0 0 0
7314	2749859 18 2264 2264 0.072 0.072 1 0 0 0 0
7332	2749877 18 2264 2264 0.072 0.072 1 0 0 0 0
7334	2749895 18 2264 2264 0.072 0.072 1 0 0 0 0
7375	2749913 18 2264 2264 0.072 0.072 1 0 0 0 0
7395	2749931 18 2264 2264 0.072 0.072 1 0 0 0 0
7406	2749949 18 2264 2264 0.072 0.072 1 0 0 0 0
7408	2749967 18 2264 2264 0.072 0.072 1 0 0 0 0
7428	2749985 18 2264 2264 0.072 0.072 1 0 0 0 0
7430	2750003 18 2264 2264 0.072 0.072 1 0 0 0 0
7450	2750021 18 2264 2264 0.072 0.072 1 0 0 0 0
7452	2750039 18 2264 2264 0.072 0.072 1 0 0 0 0
7472	2750057 18 2264 2264 0.072 0.072 1 0 0 0 0
7474	2750075 18 2264 2264 0.072 0.072 1 0 0 0 0
7494	2750093 18 2264 2264 0.072 0.072 1 0 0 0 0
7496	2750111 18 2264 2264 0.072 0.072 1 0 0 0 0
7516	2750129 18 2264 2264 0.072 0.072 1 0 0 0 0
7518	2750147 18 2264 2264 0.072 0.072 1 0 0 0 0
7538	2750165 18 2264 2264 0.072 0.072 1 0 0 0 0
7540	2750183 18 2264 2264 0.072 0.072 1 0 0 0 0
7560	2750201 18 2264 2264 0.072 0.072 1 0 0 0 0
7562	2750219 18 2264 2264 0.072 0.072 1 0 0 0 0
7582	2750237 18 2264 2264 0.072 0.072 1 0 0 0 0
7584	2750255 18 2264 2264 0.072 0.072 1 0 0 0 0
7604	2750273 18 2264 2264 0.072 0.072 1 0 0 0 0
7606	2750291 18 2264 2264 0.072 0.072 1 0 0 0 0
7626	2750309 18 2264 2264 0.072 0.072 1 0 0 0 0
7628	2750327 18 2264 2264 0.072 0.072 1 0 0 0 0
7648	2750345 18 2264 2264 0.072 0.072 1 0 0 0 0
7650	2750363 18 2264 2264 0.072 0.072 1 0 0 0 0
7670	2750381 18 2264 2264 0.072 0.072 1 0 0 0 0
7672	2750399 18 2264 2264 0.072 0.072 1 0 0 0 0
7692	2750417 18 2264 2264 0.072 0.072 1 0 0 0 0
7694	2750435 18 2264 2264 0.072 0.072 1 0 0 0 0
7714	2750453 18 2264 2264 0.072 0.072 1 0 0 0 0
7716	2750471 18 2264 2264 0.072 0.072 1 0 0 0 0
7736	2750489 18 2264 2264 0.072 0.072 1 0 0 0 0
7738	2750507 18 2264 2264 0.072 0.072 1 0 0 0 0
7758	2750525 18 2264 2264 0.072 0.072 1 0 0 0 0
7760	2750543 18 2264 2264 0.072 0.072 1 0 0 0 0
7780	2750561 18 2264 2264 0.072 0.072 1 0 0 0 0
7782	2750579 18 2264 2264 0.072 0.072 1 0 0 0 0
7802	2750597 18 2264 2264 0.072 0.072 1 0 0 0 0
7804	2750615 18 2264 2264 0.072 0.072 1 0 0 0 0
7824	2750633 18 2264 2264 0.072 0.072 1 0 0 0 0
7826	2750651 18 2264 2264 0.072 0.072 1 0 0 0 0
7846	2750669 18 2264 2264 0.072 0.072 1 0 0 0 0
7848	2750687 18 2264 2264 0.072 0.072 1 0 0 0 0
7868	2750705 18 2264 2264 0.072 0.072 1 0 0 0 0
7870	2750723 18 2264 2264 0.072 0.072 1 0 0 0 0
7890	2750741 18 2264 2264 0.072 0.072 1 0 0 0 0
7892	2750759 18 2264 2264 0.072 0.072 1 0 0 0 0
7912	2750777 18 2264 2264 0.072 0.072 1 0 0 0 0
7914	2750795 18 2264 2264 0.072 0.072 1 0 0 0 0
7934	2750813 18 2264 2264 0.072 0.072 1 0 0 0 0
7936	2750831 18 2264 2264 0.072 0.072 1 0 0 0 0
7956	2750849 18 2264 2264 0.072 0.072 1 0 0 0 0
7958	2750867 18 2264 2264 0.072 0.072 1 0 0 0 0
7978	2750885 18 2264 2264 0.072 0.072 1 0 0 0 0
7980	2750903 18 2264 2264 0.072 0.072 1 0 0 0 0
8000	2750921 18 2264 2264 0.072 0.072 1 0 0 0 0
8002	2750939 18 2264 2264 0.072 0.072 1 0 0 0 0
8022	2750957 18 2264 2264 0.072 0.072 1 0 0 0 0
8024	2750975 18 2264 2264 0.072 0.072 1 0 0 0 0
8044	2750993 18 2264 2264 0.072 0.072 1 0 0 0 0
8046	2751011 18 2264 2264 0.072 0.072 1 0 0 0 0
8066	2751029 18 2264 2264 0.072 0.072 1 0 0 0 0
8068	2751047 18 2264 2264 0.072 0.072 1 0 0 0 0
8088	2751065 18 2264 2264 0.072 0.072 1 0 0 0 0
8090	2751083 18 2264 2264 0.072 0.072 1 0 0 0 0
8110	2751101 18 2264 2264 0.072 0.072 1 0 0 0 0
8112	2751119 18 2264 2264 0.072 0.072 1 0 0 0 0
8132	2751137 18 2264 2264 0.072 0.072 1 0 0 0 0
8134	2751155 18 2264 2264 0.072 0.072 1 0 0 0 0
8154	2751173 18 2264 2264 0.072 0.072 1 0 0 0 0
8156	2751191 18 2264 2264 0.072 0.072 1 0 0 0 0
8176	2751209 18 2264 2264 0.072 0.072 1 0 0 0 0
8178	2751227 18 2264 2264 0.072 0.072 1 0 0 0 0
8198	2751245 18 2264 2264 0.072 0.072 1 0 0 0 0
8200	2751263 18 2264 2264 0.072 0.072 1 0 0 0 0
8220	2751281 18 2264 2264 0.072 0.072 1 0 0 0 0
8222	2751299 18 2264 2264 0.072 0.072 1 0 0 0 0
8242	2751317 18 2264 2264 0.072 0.072 1 0 0 0 0
8244	2751335 18 2264 2264 0.072 0.072 1 0 0 0 0
8264	2751353 18 2264 2264 0.072 0.072 1 0 0 0 0
8266	2751371 18 2264 2264 0.072 0.072 1 0 0 0 0
8286	2751389 18 2264 2264 0.072 0.072 1 0 0 0 0
8288	2751407 18 2264 2264 0.072 0.072 1 0 0 0 0
8308	2751425 18 2264 2264 0.072 0.072 1 0 0 0 0
8310	2751443 18 2264 2264 0.072 0.072 1 0 0 0 0
8330	2751461 18 2264 2264 0.072 0.072 1 0 0 0 0
8332	2751479 18 2264 2264 0.072 0.072 1 0 0 0 0
8352	2751497 18 2264 2264 0.072 0.072 1 0 0 0 0
8354	2751515 18 2264 2264 0.072 0.072 1 0 0 0 0
8374	2751533 18 2264 2264 0.072 0.072 1 0 0 0 0
8376	2751551 18 2264 2264 0.072 0.072 1 0 0 0 0
8396	2751569 18 2264 2264 0.072 0.072 1 0 0 0 0
8398	2751587 18 2264 2264 0.072 0.072 1 0 0 0 0
8418	2751605 18 2264 2264 0.072 0.072 1 0 0 0 0
8420	2751623 18 2264 2264 0.072 0.072 1 0 0 0 0
8440	2751641 18 2264 2264 0.072 0.072 1 0 0 0 0
8442	2751659 18 2264 2264 0.072 0.072 1 0 0 0 0
8462	2751677 18 2264 2264 0.072 0.072 1 0 0 0 0
8464	2751695 18 2264 2264 0.072 0.072 1 0 0 0 0
8484	2751713 18 2264 2264 0.072 0.072 1 0 0 0 0
8486	2751731 18 2264 2264 0.072 0.072 1 0 0 0 0
8506	2751749 18 2264 2264 0.072 0.072 1 0 0 0 0
8508	2751767 18 2264 2264 0.072 0.072 1 0 0 0 0
8528	2751785 18 2264 2264 0.072 0.072 1 0 0 0 0
8530	2751803 18 2264 2264 0.072 0.072 1 0 0 0 0
8550	2751821 18 2264 2264 0.072 0.072 1 0 0 0 0
8552	2751839 18 2264 2264 0.072 0.072 1 0 0 0 0
8572	2751857 18 2264 2264 0.072 0.072 1 0 0 0 0
8574	2751875 18 2264 2264 0.072 0.072 1 0 0 0 0
8594	2751893 18 2264 2264 0.072 0.072 1 0 0 0 0
8596	2751911 18 2264 2264 0.072 0.072 1 0 0 0 0
8616	2751929 18 2264 2264 0.072 0.072 1 0 0 0 0
8618	2751947 18 2264 2264 0.072 0.072 1 0 0 0 0
8638	2751965 18 2264 2264 0.072 0.072 1 0 0 0 0
8640	2751983 18 2264 2264 0.072 0.072 1 0 0 0 0
8660	2752001 18 2264 2264 0.072 0.072 1 0 0 0 0
8662	2752019 18 2264 2264 0.072 0.072 1 0 0 0 0
8682	2752037 18 2264 2264 0.072 0.072 1 0 0 0 0
8684	2752055 18 2264 2264 0.072 0.072 1 0 0 0 0
8704	2752073 18 2264 2264 0.072 0.072 1 0 0 0 0
8706	2752091 18 2264 2264 0.072 0.072 1 0 0 0 0
8726	2752109 18 2264 2264 0.072 0.072 1 0 0 0 0
8728	2752127 18 2264 2264 0.072 0.072 1 0 0 0 0
8761	2752145 18 2264 2264 0.072 0.072 1 0 0 0 0
8781	2752163 18 2264 2264 0.072 0.072 1 0 0 0 0
8792	2752181 18 2264 2264 0.072 0.072 1 0 0 0 0
8794	2752199 18 2264 2264 0.072 0.072 1 0 0 0 0
8814	2752217 18 2264 2264 0.072 0.072 1 0 0 0 0
8816	2752235 18 2264 2264 0.072 0.072 1 0 0 0 0
8836	2752253 18 2264 2264 0.072 0.072 1 0 0 0 0
8838	2752271 18 2264 2264 0.072 0.072 1 0 0 0 0
8858	2752289 18 2264 2264 0.072 0.072 1 0 0 0 0
8860	2752307 18 2264 2264 0.072 0.072 1 0 0 0 0
8880	2752325 18 2264 2264 0.072 0.072 1 0 0 0 0
8882	2752343 18 2264 2264 0.072 0.072 1 0 0 0 0
8902	2752361 18 2264 2264 0.072 0.072 1 0 0 0 0
8904	2752379 18 2264 2264 0.072 0.072 1 0 0 0 0
8924	2752397 18 2264 2264 0.072 0.072 1 0 0 0 0
8926	2752415 18 2264 2264 0.072 0.072 1 0 0 0 0
8946	2752433 18 2264 2264 0.072 0.072 1 0 0 0 0
8948	2752451 18 2264 2264 0.072 0.072 1 0 0 0 0
8968	2752469 18 2264 2264 0.072 0.072 1 0 0 0 0
8970	2752487 18 2264 2264 0.072 0.072 1 0 0 0 0
8990	2752505 18 2264 2264 0.072 0.072 1 0 0 0 0
8992	2752523 18 2264 2264 0.072 0.072 1 0 0 0 0
9012	2752541 18 2264 2264 0.072 0.072 1 0 0 0 0
9014	2752559 18 2264 2264 0.072 0.072 1 0 0 0 0
9034	2752577 18 2264 2264 0.072 0.072 1 0 0 0 0
9036	2752595 18 2264 2264 0.072 0.072 1 0 0 0 0
9056	2752613 18 2264 2264 0.072 0.072 1 0 0 0 0
9058	2752631 18 2264 2264 0.072 0.072 1 0 0 0 0
9078	2752649 18 2264 2264 0.072 0.072 1 0 0 0 0
9080	2752667 18 2264 2264 0.072 0.072 1 0 0 0 0
9100	2752685 18 2264 2264 0.072 0.072 1 0 0 0 0
9102	2752703 18 2264 2264 0.072 0.072 1 0 0 0 0
9122	2752721 18 2264 2264 0.072 0.072 1 0 0 0 0
9124	2752739 18 2264 2264 0.072 0.072 1 0 0 0 0
9144	2752757 18 2264 2264 0.072 0.072 1 0 0 0 0
9146	2752775 18 2264 2264 0.072 0.072 1 0 0 0 0
9166	2752793 18 2264 2264 0.072 0.072 1 0 0 0 0
9168	2752811 18 2264 2264 0.072 0.072 1 0 0 0 0
9188	2752829 18 2264 2264 0.072 0.072 1 0 0 0 0
9190	2752847 18 2264 2264 0.072 0.072 1 0 0 0 0
9210	2752865 18 2264 2264 0.072 0.072 1 0 0 0 0
9212	2752883 18 2264 2264 0.072 0.072 1 0 0 0 0
9232	2752901 18 2264 2264 0.072 0.072 1 0 0 0 0
9234	2752919 18 2264 2264 0.072 0.072 1 0 0 0 0
9254	2752937 18 2264 2264 0.072 0.072 1 0 0 0 0
9256	2752955 18 2264 2264 0.072 0.072 1 0 0 0 0
9276	2752973 18 2264 2264 0.072 0.072 1 0 0 0 0
9278	2752991 18 2264 2264 0.072 0.072 1 0 0 0 0
9298	2753009 18 2264 2264 0.072 0.072 1 0 0 0 0
9300	2753027 18 2264 2264 0.072 0.072 1 0 0 0 0
9320	2753045 18 2264 2264 0.072 0.072 1 0 0 0 0
9322	2753063 18 2264 2264 0.072 0.072 1 0 0 0 0
9342	2753081 18 2264 2264 0.072 0.072 1 0 0 0 0
9344	2753099 18 2264 2264 0.072 0.072 1 0 0 0 0
9364	2753117 18 2264 2264 0.072 0.072 1 0 0 0 0
9366	2753135 18 2264 2264 0.072 0.072 1 0 0 0 0
9386	2753153 18 2264 2264 0.072 0.072 1 0 0 0 0
9388	2753171 18 2264 2264 0.072 0.072 1 0 0 0 0
9408	2753189 18 2264 2264 0.072 0.072 1 0 0 0 0
9410	2753207 18 2264 2264 0.072 0.072 1 0 0 0 0
9430	2753225 18 2264 2264 0.072 0.072 1 0 0 0 0
9432	2753243 18 2264 2264 0.072 0.072 1 0 0 0 0
9452	2753261 18 2264 2264 0.072 0.072 1 0 0 0 0
9454	2753279 18 2264 2264 0.072 0.072 1 0 0 0 0
9474	2753297 18 2264 2264 0.072 0.072 1 0 0 0 0
9476	2753315 18 2264 2264 0.072 0.072 1 0 0 0 0
9496	2753333 18 2264 2264 0.072 0.072 1 0 0 0 0
9498	2753351 18 2264 2264 0.072 0.072 1 0 0 0 0
9518	2753369 18 2264 2264 0.072 0.072 1 0 0 0 0
9520	2753387 18 2264 2264 0.072 0.072 1 0 0 0 0
9540	2753405 18 2264 2264 0.072 0.072 1 0 0 0 0
9542	2753423 18 2264 2264 0.072 0.072 1 0 0 0 0
9562	2753441 18 2264 2264 0.072 0.072 1 0 0 0 0
9564	2753459 18 2264 2264 0.072 0.072 1 0 0 0 0
9584	2753477 18 2264 2264 0.072 0.072 1 0 0 0 0
9586	2753495 18 2264 2264 0.072 0.072 1 0 0 0 0
9606	2753513 18 2264 2264 0.072 0.072 1 0 0 0 0
9608	2753531 18 2264 2264 0.072 0.072 1 0 0 0 0
9628	2753549 18 2264 2264 0.072 0.072 1 0 0 0 0
9630	2753567 18 2264 2264 0.072 0.072 1 0 0 0 0
9650	2753585 18 2264 2264 0.072 0.072 1 0 0 0 0
9652	2753603 18 2264 2264 0.072 0.072 1 0 0 0 0
9672	2753621 18 2264 2264 0.072 0.072 1 0 0 0 0
9674	2753639 18 2264 2264 0.072 0.072 1 0 0 0 0
9694	2753657 18 2264 2264 0.072 0.072 1 0 0 0 0
9696	2753675 18 2264 2264 0.072 0.072 1 0 0 0 0
9716	2753693 18 2264 2264 0.072 0.072 1 0 0 0 0
9718	2753711 18 2264 2264 0.072 0.072 1 0 0 0 0
9738	2753729 18 2264 2264 0.072 0.072 1 0 0 0 0
9740	2753747 18 2264 2264 0.072 0.072 1 0 0 0 0
9760	2753765 18 2264 2264 0.072 0.072 1 0 0 0 0
9762	2753783 18 2264 2264 0.072 0.072 1 0 0 0 0
9782	2753801 18 2264 2264 0.072 0.072 1 0 0 0 0
9784	2753819 18 2264 2264 0.072 0.072 1 0 0 0 0
9804	2753837 18 2264 2264 0.072 0.072 1 0 0 0 0
9806	2753855 18 2264 2264 0.072 0.072 1 0 0 0 0
9826	2753873 18 2264 2264 0.072 0.072 1 0 0 0 0
9828	2753891 18 2264 2264 0.072 0.072 1 0 0 0 0
9848	2753909 18 2264 2264 0.072 0.072 1 0 0 0 0
9850	2753927 18 2264 2264 0.072 0.072 1 0 0 0 0
9870	2753945 18 2264 2264 0.072 0.072 1 0 0 0 0
9872	2753963 18 2264 2264 0.072 0.072 1 0 0 0 0
9892	2753981 18 2264 2264 0.072 0.072 1 0 0 0 0
9894	2753999 18 2264 2264 0.072 0.072 1 0 0 0 0
9927	2754017 18 2264 2264 0.072 0.072 1 0 0 0 0
9947	2754035 18 2264 2264 0.072 0.072 1 0 0 0 0
9958	2754053 18 2264 2264 0.072 0.072 1 0 0 0 0
9960	2754071 18 2264 2264 0.072 0.072 1 0 0 0 0
9980	2754089 18 2264 2264 0.072 0.072 1 0 0 0 0
9982	2754107 18 2264 2264 0.072 0.072 1 0 0 0 0
10002	2754125 19 2264 2264 0.072 0.072 1 0 0 0 0
10004	2754144 19 2264 2264 0.072 0.072 1 0 0 0 0
10028	2754163 19 2264 2264 0.072 0.072 1 0 0 0 0
10030	2754182 19 2264 2264 0.072 0.072 1 0 0 0 0
10048	2754201 19 2264 2264 0.072 0.072 1 0 0 0 0
10050	2754220 19 2264 2264 0.072 0.072 1 0 0 0 0
10068	2754239 19 2264 2264 0.072 0.072 1 0 0 0 0
10070	2754258 19 2264 2264 0.072 0.072 1 0 0 0 0
10088	2754277 19 2264 2264 0.072 0.072 1 0 0 0 0
10090	2754296 19 2264 2264 0.072 0.072 1 0 0 0 0
10108	2754315 19 2264 2264 0.072 0.072 1 0 0 0 0
10110	2754334 19 2264 2264 0.072 0.072 1 0 0 0 0
10128	2754353 19 2264 2264 0.072 0.072 1 0 0 0 0
10130	2754372 19 2264 2264 0.072 0.072 1 0 0 0 0
10148	2754391 19 2264 2264 0.072 0.072 1 0 0 0 0
10150	2754410 19 2264 2264 0.072 0.072 1 0 0 0 0
10178	2754429 19 2264 2264 0.072 0.072 1 0 0 0 0
10189	2754448 19 2264 2264 0.072 0.072 1 0 0 0 0
10191	2754467 19 2264 2264 0.072 0.072 1 0 0 0 0
10209	2754486 19 2264 2264 0.072 0.072 1 0 0 0 0
10211	2754505 19 2264 2264 0.072 0.072 1 0 0 0 0
10229	2754524 19 2264 2264 0.072 0.072 1 0 0 0 0
10231	2754543 19 2264 2264 0.072 0.072 1 0 0 0 0
10249	2754562 19 2264 2264 0.072 0.072 1 0 0 0 0
10251	2754581 19 2264 2264 0.072 0.072 1 0 0 0 0
10269	2754600 19 2264 2264 0.072 0.072 1 0 0 0 0
10271	2754619 19 2264 2264 0.072 0.072 1 0 0 0 0
10289	2754638 19 2264 2264 0.072 0.072 1 0 0 0 0
10291	2754657 19 2264 2264 0.072 0.072 1 0 0 0 0
10309	2754676 19 2264 2264 0.072 0.072 1 0 0 0 0
10311	2754695 19 2264 2264 0.072 0.072 1 0 0 0 0
10339	2754714 19 2264 2264 0.072 0.072 1 0 0 0 0
10350	2754733 19 2264 2264 0.072 0.072 1 0 0 0 0
10352	2754752 19 2264 2264 0.072 0.072 1 0 0 0 0
10370	2754771 19 2264 2264 0.072 0.072 1 0 0 0 0
10372	2754790 19 2264 2264 0.072 0.072 1 0 0 0 0
10390	2754809 19 2264 2264 0.072 0.072 1 0 0 0 0
10392	2754828 19 2264 2264 0.072 0.072 1 0 0 0 0
10410	2754847 19 2264 2264 0.072 0.072 1 0 0 0 0
10412	2754866 19 2264 2264 0.072 0.072 1 0 0 0 0
10430	2754885 19 2264 2264 0.072 0.072 1 0 0 0 0
10432	2754904 19 2264 2264 0.072 0.072 1 0 0 0 0
10450	2754923 19 2264 2264 0.072 0.072 1 0 0 0 0
10452	2754942 19 2264 2264 0.072 0.072 1 0 0 0 0
10470	2754961 19 2264 2264 0.072 0.072 1 0 0 0 0
10472	2754980 19 2264 2264 0.072 0.072 1 0 0 0 0
10500	2754999 19 2264 2264 0.072 0.072 1 0 0 0 0
10511	2755018 19 2264 2264 0.072 0.072 1 0 0 0 0
10513	2755037 19 2264 2264 0.072 0.072 1 0 0 0 0
10531	2755056 19 2264 2264 0.072 0.072 1 0 0 0 0
10533	2755075 19 2264 2264 0.072 0.072 1 0 0 0 0
10551	2755094 19 2264 2264 0.072 0.072 1 0 0 0 0
10553	2755113 19 2264 2264 0.072 0.072 1 0 0 0 0
10588	2755132 19 2264 2264 0.072 0.072 1 0 0 0 0
10590	2755151 19 2264 2264 0.072 0.072 1 0 0 0 0
10608	2755170 19 2264 2264 0.072 0.072 1 0 0 0 0
10610	2755189 19 2264 2264 0.072 0.072 1 0 0 0 0
10628	2755208 19 2264 2264 0.072 0.072 1 0 0 0 0
10630	2755227 19 2264 2264 0.072 0.072 1 0 0 0 0
10665	2755246 19 2264 2264 0.072 0.072 1 0 0 0 0
10667	2755265 19 2264 2264 0.072 0.072 1 0 0 0 0
10685	2755284 19 2264 2264 0.072 0.072 1 0 0 0 0
10687	2755303 19 2264 2264 0.072 0.072 1 0 0 0 0
10705	2755322 19 2264 2264 0.072 0.072 1 0 0 0 0
10707	2755341 19 2264 2264 0.072 0.072 1 0 0 0 0
10742	2755360 19 2264 2264 0.072 0.072 1 0 0 0 0
10744	2755379 19 2264 2264 0.072 0.072 1 0 0 0 0
10762	2755398 19 2264 2264 0.072 0.072 1 0 0 0 0
10764	2755417 19 2264 2264 0.072 0.072 1 0 0 0 0
10782	2755436 19 2264 2264 0.072 0.072 1 0 0 0 0
10784	2755455 19 2264 2264 0.072 0.072 1 0 0 0 0
10819	2755474 19 2264 2264 0.072 0.072 1 0 0 0 0
10821	2755493 19 2264 2264 0.072 0.072 1 0 0 0 0
10839	2755512 19 2264 2264 0.072 0.072 1 0 0 0 0
10841	2755531 19 2264 2264 0.072 0.072 1 0 0 0 0
10859	2755550 19 2264 2264 0.072 0.072 1 0 0 0 0
10861	2755569 19 2264 2264 0.072 0.072 1 0 0 0 0
10896	2755588 19 2264 2264 0.072 0.072 1 0 0 0 0
10898	2755607 19 2264 2264 0.072 0.072 1 0 0 0 0
10916	2755626 19 2264 2264 0.072 0.072 1 0 0 0 0
10918	2755645 19 2264 2264 0.072 0.072 1 0 0 0 0
10936	2755664 19 2264 2264 0.072 0.072 1 0 0 0 0
10938	2755683 19 2264 2264 0.072 0.072 1 0 0 0 0

